version 3
run OfflineData_BehaviorStochastic-1-20260308-14:32:27-94335
attr configname OfflineData_BehaviorStochastic
attr datetime 20260308-14:32:27
attr datetimef 20260308-143227
attr experiment OfflineData_BehaviorStochastic
attr inifile omnetpp_offline.ini
attr iterationvars ""
attr iterationvarsd ""
attr iterationvarsf ""
attr measurement ""
attr network src.UavWsnNetwork
attr processid 94335
attr repetition 1
attr replication #1
attr resultdir results/offline_dataset/behavior-stochastic/run-1
attr runnumber 1
attr seedset 1
config sim-time-limit 20s
config extends General
config **.routing[*].policyPool "\"eps_0.10,eps_0.25,softmax_0.2,softmax_0.5,softmax_1.0\""
config **.routing[*].policyMixWeights "\"1.0,2.0,1.0,1.0,1.0\""
config result-dir results/offline_dataset/behavior-stochastic/run-1
config **.routing[*].transitionsFile "\"results/offline_dataset/behavior-stochastic/run-1/transitions.jsonl\""
config repeat 30
config network src.UavWsnNetwork
config sim-time-limit 5000s
config ned-path .:src
config seed-set 1
config *.numNodes 400
config *.areaX 1000
config *.areaY 1000
config *.radioMedium.roundDuration 1.0
config **.sensors[*].initialEnergy 0.5
config **.sensors[*].beaconInterval 0.1
config **.sensors[*].dataInterval 1.0
config **.sensors[*].controlPacketSize 200
config **.sensors[*].dataPacketSize 2000
config **.sensors[*].eElec 50e-9
config **.sensors[*].eFreeSpace 10e-12
config **.sensors[*].eMultiPath 0.0013e-12
config **.sensors[*].idleListeningPower 1.84e-5
config **.sensors[*].range154 100
config **.sensors[*].enableBeaconing true
config **.sensors[*].enableDataGeneration true
config **.sensors[*].isBaseStation false
config *.bs.initialX -200
config *.bs.initialY 500
config *.bs.enableBeaconing false
config *.bs.enableDataGeneration false
config *.bs.isBaseStation true
config *.uav.minSpeed 10
config *.uav.maxSpeed 10
config *.uav.commRadius 192
config *.uav.uploadRadius 280
config *.uav.beaconInterval 5.0
config *.uav.positionUpdateInterval 0.5
config *.uav.uploadInterval 0.5
config *.uav.missionPeriod 280
config *.uav.missionDuration -1
config *.uav.contactWindow 8.0
config **.routing[*].modelFile "\"\""
config **.routing[*].bufferSize 32
config **.routing[*].maxCandidates 5
config **.routing[*].maxRetries 1
config **.routing[*].maxRouteAttempts 6
config **.routing[*].maxHops 30
config **.routing[*].minLinkQuality 0.25
config **.routing[*].minNeighborEnergyRatio 0.05
config **.routing[*].adaptationAlpha 0.2
config **.routing[*].queueHighWatermark 0.8
config **.routing[*].congestionPenalty 0.15
config **.routing[*].delayThreshold 0.25
config **.routing[*].ackTimeout 0.6
config **.routing[*].neighborTimeout 5.0
config **.routing[*].decisionInterval 0.02
config **.routing[*].policyPool "\"eps_0.05,eps_0.10,eps_0.20,eps_0.25,softmax_0.2,softmax_0.5,softmax_1.0,greedy\""
config **.routing[*].policyMixWeights "\"1.0,1.0,1.0,2.0,1.0,1.0,1.0,0.6\""
config **.routing[*].episodePolicyMode "\"random_stratified\""
config **.routing[*].episodeDuration 280.0
config **.routing[*].utilityCoeffLq 1.7
config **.routing[*].utilityCoeffNeighEnergy 0.9
config **.routing[*].utilityCoeffQueue 1.1
config **.routing[*].utilityCoeffFail 1.0
config **.routing[*].utilityCoeffUavDistance 0.35
config **.routing[*].mobilityTag "\"ggm-base\""
config **.scalar-recording true
config **.vector-recording false
config output-scalar-file results/offline_dataset/behavior-stochastic/run-1/OfflineData_BehaviorStochastic-1.sca
config output-vector-file results/offline_dataset/behavior-stochastic/run-1/OfflineData_BehaviorStochastic-1.vec

scalar UavWsnNetwork.radioMedium neighbors-0 3
scalar UavWsnNetwork.radioMedium neighbors-1 8
scalar UavWsnNetwork.radioMedium neighbors-2 6
scalar UavWsnNetwork.radioMedium neighbors-3 2
scalar UavWsnNetwork.radioMedium neighbors-4 10
scalar UavWsnNetwork.radioMedium neighbors-5 11
scalar UavWsnNetwork.radioMedium neighbors-6 13
scalar UavWsnNetwork.radioMedium neighbors-7 11
scalar UavWsnNetwork.radioMedium neighbors-8 6
scalar UavWsnNetwork.radioMedium neighbors-9 13
scalar UavWsnNetwork.radioMedium neighbors-10 9
scalar UavWsnNetwork.radioMedium neighbors-11 17
scalar UavWsnNetwork.radioMedium neighbors-12 10
scalar UavWsnNetwork.radioMedium neighbors-13 12
scalar UavWsnNetwork.radioMedium neighbors-14 8
scalar UavWsnNetwork.radioMedium neighbors-15 11
scalar UavWsnNetwork.radioMedium neighbors-16 13
scalar UavWsnNetwork.radioMedium neighbors-17 13
scalar UavWsnNetwork.radioMedium neighbors-18 10
scalar UavWsnNetwork.radioMedium neighbors-19 10
scalar UavWsnNetwork.radioMedium neighbors-20 12
scalar UavWsnNetwork.radioMedium neighbors-21 9
scalar UavWsnNetwork.radioMedium neighbors-22 11
scalar UavWsnNetwork.radioMedium neighbors-23 17
scalar UavWsnNetwork.radioMedium neighbors-24 12
scalar UavWsnNetwork.radioMedium neighbors-25 15
scalar UavWsnNetwork.radioMedium neighbors-26 13
scalar UavWsnNetwork.radioMedium neighbors-27 9
scalar UavWsnNetwork.radioMedium neighbors-28 9
scalar UavWsnNetwork.radioMedium neighbors-29 13
scalar UavWsnNetwork.radioMedium neighbors-30 10
scalar UavWsnNetwork.radioMedium neighbors-31 6
scalar UavWsnNetwork.radioMedium neighbors-32 10
scalar UavWsnNetwork.radioMedium neighbors-33 17
scalar UavWsnNetwork.radioMedium neighbors-34 6
scalar UavWsnNetwork.radioMedium neighbors-35 14
scalar UavWsnNetwork.radioMedium neighbors-36 8
scalar UavWsnNetwork.radioMedium neighbors-37 7
scalar UavWsnNetwork.radioMedium neighbors-38 8
scalar UavWsnNetwork.radioMedium neighbors-39 10
scalar UavWsnNetwork.radioMedium neighbors-40 2
scalar UavWsnNetwork.radioMedium neighbors-41 11
scalar UavWsnNetwork.radioMedium neighbors-42 10
scalar UavWsnNetwork.radioMedium neighbors-43 17
scalar UavWsnNetwork.radioMedium neighbors-44 10
scalar UavWsnNetwork.radioMedium neighbors-45 13
scalar UavWsnNetwork.radioMedium neighbors-46 18
scalar UavWsnNetwork.radioMedium neighbors-47 5
scalar UavWsnNetwork.radioMedium neighbors-48 13
scalar UavWsnNetwork.radioMedium neighbors-49 11
scalar UavWsnNetwork.radioMedium neighbors-50 9
scalar UavWsnNetwork.radioMedium neighbors-51 10
scalar UavWsnNetwork.radioMedium neighbors-52 10
scalar UavWsnNetwork.radioMedium neighbors-53 15
scalar UavWsnNetwork.radioMedium neighbors-54 9
scalar UavWsnNetwork.radioMedium neighbors-55 8
scalar UavWsnNetwork.radioMedium neighbors-56 12
scalar UavWsnNetwork.radioMedium neighbors-57 9
scalar UavWsnNetwork.radioMedium neighbors-58 14
scalar UavWsnNetwork.radioMedium neighbors-59 9
scalar UavWsnNetwork.radioMedium neighbors-60 13
scalar UavWsnNetwork.radioMedium neighbors-61 6
scalar UavWsnNetwork.radioMedium neighbors-62 19
scalar UavWsnNetwork.radioMedium neighbors-63 16
scalar UavWsnNetwork.radioMedium neighbors-64 9
scalar UavWsnNetwork.radioMedium neighbors-65 10
scalar UavWsnNetwork.radioMedium neighbors-66 12
scalar UavWsnNetwork.radioMedium neighbors-67 9
scalar UavWsnNetwork.radioMedium neighbors-68 16
scalar UavWsnNetwork.radioMedium neighbors-69 13
scalar UavWsnNetwork.radioMedium neighbors-70 8
scalar UavWsnNetwork.radioMedium neighbors-71 13
scalar UavWsnNetwork.radioMedium neighbors-72 14
scalar UavWsnNetwork.radioMedium neighbors-73 9
scalar UavWsnNetwork.radioMedium neighbors-74 15
scalar UavWsnNetwork.radioMedium neighbors-75 9
scalar UavWsnNetwork.radioMedium neighbors-76 10
scalar UavWsnNetwork.radioMedium neighbors-77 14
scalar UavWsnNetwork.radioMedium neighbors-78 10
scalar UavWsnNetwork.radioMedium neighbors-79 11
scalar UavWsnNetwork.radioMedium neighbors-80 14
scalar UavWsnNetwork.radioMedium neighbors-81 13
scalar UavWsnNetwork.radioMedium neighbors-82 10
scalar UavWsnNetwork.radioMedium neighbors-83 5
scalar UavWsnNetwork.radioMedium neighbors-84 10
scalar UavWsnNetwork.radioMedium neighbors-85 16
scalar UavWsnNetwork.radioMedium neighbors-86 9
scalar UavWsnNetwork.radioMedium neighbors-87 9
scalar UavWsnNetwork.radioMedium neighbors-88 19
scalar UavWsnNetwork.radioMedium neighbors-89 12
scalar UavWsnNetwork.radioMedium neighbors-90 12
scalar UavWsnNetwork.radioMedium neighbors-91 15
scalar UavWsnNetwork.radioMedium neighbors-92 8
scalar UavWsnNetwork.radioMedium neighbors-93 10
scalar UavWsnNetwork.radioMedium neighbors-94 9
scalar UavWsnNetwork.radioMedium neighbors-95 9
scalar UavWsnNetwork.radioMedium neighbors-96 16
scalar UavWsnNetwork.radioMedium neighbors-97 14
scalar UavWsnNetwork.radioMedium neighbors-98 7
scalar UavWsnNetwork.radioMedium neighbors-99 15
scalar UavWsnNetwork.radioMedium neighbors-100 13
scalar UavWsnNetwork.radioMedium neighbors-101 7
scalar UavWsnNetwork.radioMedium neighbors-102 14
scalar UavWsnNetwork.radioMedium neighbors-103 14
scalar UavWsnNetwork.radioMedium neighbors-104 16
scalar UavWsnNetwork.radioMedium neighbors-105 21
scalar UavWsnNetwork.radioMedium neighbors-106 7
scalar UavWsnNetwork.radioMedium neighbors-107 12
scalar UavWsnNetwork.radioMedium neighbors-108 18
scalar UavWsnNetwork.radioMedium neighbors-109 10
scalar UavWsnNetwork.radioMedium neighbors-110 10
scalar UavWsnNetwork.radioMedium neighbors-111 13
scalar UavWsnNetwork.radioMedium neighbors-112 7
scalar UavWsnNetwork.radioMedium neighbors-113 17
scalar UavWsnNetwork.radioMedium neighbors-114 12
scalar UavWsnNetwork.radioMedium neighbors-115 18
scalar UavWsnNetwork.radioMedium neighbors-116 13
scalar UavWsnNetwork.radioMedium neighbors-117 17
scalar UavWsnNetwork.radioMedium neighbors-118 19
scalar UavWsnNetwork.radioMedium neighbors-119 9
scalar UavWsnNetwork.radioMedium neighbors-120 7
scalar UavWsnNetwork.radioMedium neighbors-121 10
scalar UavWsnNetwork.radioMedium neighbors-122 8
scalar UavWsnNetwork.radioMedium neighbors-123 16
scalar UavWsnNetwork.radioMedium neighbors-124 12
scalar UavWsnNetwork.radioMedium neighbors-125 17
scalar UavWsnNetwork.radioMedium neighbors-126 8
scalar UavWsnNetwork.radioMedium neighbors-127 11
scalar UavWsnNetwork.radioMedium neighbors-128 11
scalar UavWsnNetwork.radioMedium neighbors-129 14
scalar UavWsnNetwork.radioMedium neighbors-130 11
scalar UavWsnNetwork.radioMedium neighbors-131 10
scalar UavWsnNetwork.radioMedium neighbors-132 15
scalar UavWsnNetwork.radioMedium neighbors-133 10
scalar UavWsnNetwork.radioMedium neighbors-134 15
scalar UavWsnNetwork.radioMedium neighbors-135 10
scalar UavWsnNetwork.radioMedium neighbors-136 10
scalar UavWsnNetwork.radioMedium neighbors-137 12
scalar UavWsnNetwork.radioMedium neighbors-138 17
scalar UavWsnNetwork.radioMedium neighbors-139 14
scalar UavWsnNetwork.radioMedium neighbors-140 13
scalar UavWsnNetwork.radioMedium neighbors-141 10
scalar UavWsnNetwork.radioMedium neighbors-142 9
scalar UavWsnNetwork.radioMedium neighbors-143 11
scalar UavWsnNetwork.radioMedium neighbors-144 9
scalar UavWsnNetwork.radioMedium neighbors-145 11
scalar UavWsnNetwork.radioMedium neighbors-146 4
scalar UavWsnNetwork.radioMedium neighbors-147 9
scalar UavWsnNetwork.radioMedium neighbors-148 9
scalar UavWsnNetwork.radioMedium neighbors-149 6
scalar UavWsnNetwork.radioMedium neighbors-150 11
scalar UavWsnNetwork.radioMedium neighbors-151 8
scalar UavWsnNetwork.radioMedium neighbors-152 17
scalar UavWsnNetwork.radioMedium neighbors-153 13
scalar UavWsnNetwork.radioMedium neighbors-154 17
scalar UavWsnNetwork.radioMedium neighbors-155 11
scalar UavWsnNetwork.radioMedium neighbors-156 10
scalar UavWsnNetwork.radioMedium neighbors-157 15
scalar UavWsnNetwork.radioMedium neighbors-158 12
scalar UavWsnNetwork.radioMedium neighbors-159 14
scalar UavWsnNetwork.radioMedium neighbors-160 15
scalar UavWsnNetwork.radioMedium neighbors-161 13
scalar UavWsnNetwork.radioMedium neighbors-162 6
scalar UavWsnNetwork.radioMedium neighbors-163 10
scalar UavWsnNetwork.radioMedium neighbors-164 13
scalar UavWsnNetwork.radioMedium neighbors-165 4
scalar UavWsnNetwork.radioMedium neighbors-166 7
scalar UavWsnNetwork.radioMedium neighbors-167 11
scalar UavWsnNetwork.radioMedium neighbors-168 11
scalar UavWsnNetwork.radioMedium neighbors-169 12
scalar UavWsnNetwork.radioMedium neighbors-170 12
scalar UavWsnNetwork.radioMedium neighbors-171 12
scalar UavWsnNetwork.radioMedium neighbors-172 18
scalar UavWsnNetwork.radioMedium neighbors-173 15
scalar UavWsnNetwork.radioMedium neighbors-174 19
scalar UavWsnNetwork.radioMedium neighbors-175 10
scalar UavWsnNetwork.radioMedium neighbors-176 18
scalar UavWsnNetwork.radioMedium neighbors-177 17
scalar UavWsnNetwork.radioMedium neighbors-178 11
scalar UavWsnNetwork.radioMedium neighbors-179 14
scalar UavWsnNetwork.radioMedium neighbors-180 12
scalar UavWsnNetwork.radioMedium neighbors-181 14
scalar UavWsnNetwork.radioMedium neighbors-182 12
scalar UavWsnNetwork.radioMedium neighbors-183 10
scalar UavWsnNetwork.radioMedium neighbors-184 16
scalar UavWsnNetwork.radioMedium neighbors-185 13
scalar UavWsnNetwork.radioMedium neighbors-186 10
scalar UavWsnNetwork.radioMedium neighbors-187 16
scalar UavWsnNetwork.radioMedium neighbors-188 13
scalar UavWsnNetwork.radioMedium neighbors-189 11
scalar UavWsnNetwork.radioMedium neighbors-190 15
scalar UavWsnNetwork.radioMedium neighbors-191 11
scalar UavWsnNetwork.radioMedium neighbors-192 19
scalar UavWsnNetwork.radioMedium neighbors-193 9
scalar UavWsnNetwork.radioMedium neighbors-194 10
scalar UavWsnNetwork.radioMedium neighbors-195 11
scalar UavWsnNetwork.radioMedium neighbors-196 7
scalar UavWsnNetwork.radioMedium neighbors-197 9
scalar UavWsnNetwork.radioMedium neighbors-198 9
scalar UavWsnNetwork.radioMedium neighbors-199 10
scalar UavWsnNetwork.radioMedium neighbors-200 7
scalar UavWsnNetwork.radioMedium neighbors-201 19
scalar UavWsnNetwork.radioMedium neighbors-202 15
scalar UavWsnNetwork.radioMedium neighbors-203 9
scalar UavWsnNetwork.radioMedium neighbors-204 12
scalar UavWsnNetwork.radioMedium neighbors-205 14
scalar UavWsnNetwork.radioMedium neighbors-206 10
scalar UavWsnNetwork.radioMedium neighbors-207 13
scalar UavWsnNetwork.radioMedium neighbors-208 12
scalar UavWsnNetwork.radioMedium neighbors-209 13
scalar UavWsnNetwork.radioMedium neighbors-210 12
scalar UavWsnNetwork.radioMedium neighbors-211 12
scalar UavWsnNetwork.radioMedium neighbors-212 14
scalar UavWsnNetwork.radioMedium neighbors-213 9
scalar UavWsnNetwork.radioMedium neighbors-214 8
scalar UavWsnNetwork.radioMedium neighbors-215 9
scalar UavWsnNetwork.radioMedium neighbors-216 8
scalar UavWsnNetwork.radioMedium neighbors-217 5
scalar UavWsnNetwork.radioMedium neighbors-218 11
scalar UavWsnNetwork.radioMedium neighbors-219 6
scalar UavWsnNetwork.radioMedium neighbors-220 14
scalar UavWsnNetwork.radioMedium neighbors-221 14
scalar UavWsnNetwork.radioMedium neighbors-222 12
scalar UavWsnNetwork.radioMedium neighbors-223 11
scalar UavWsnNetwork.radioMedium neighbors-224 13
scalar UavWsnNetwork.radioMedium neighbors-225 9
scalar UavWsnNetwork.radioMedium neighbors-226 13
scalar UavWsnNetwork.radioMedium neighbors-227 12
scalar UavWsnNetwork.radioMedium neighbors-228 11
scalar UavWsnNetwork.radioMedium neighbors-229 5
scalar UavWsnNetwork.radioMedium neighbors-230 12
scalar UavWsnNetwork.radioMedium neighbors-231 16
scalar UavWsnNetwork.radioMedium neighbors-232 11
scalar UavWsnNetwork.radioMedium neighbors-233 13
scalar UavWsnNetwork.radioMedium neighbors-234 10
scalar UavWsnNetwork.radioMedium neighbors-235 11
scalar UavWsnNetwork.radioMedium neighbors-236 3
scalar UavWsnNetwork.radioMedium neighbors-237 16
scalar UavWsnNetwork.radioMedium neighbors-238 13
scalar UavWsnNetwork.radioMedium neighbors-239 11
scalar UavWsnNetwork.radioMedium neighbors-240 16
scalar UavWsnNetwork.radioMedium neighbors-241 15
scalar UavWsnNetwork.radioMedium neighbors-242 12
scalar UavWsnNetwork.radioMedium neighbors-243 13
scalar UavWsnNetwork.radioMedium neighbors-244 11
scalar UavWsnNetwork.radioMedium neighbors-245 9
scalar UavWsnNetwork.radioMedium neighbors-246 7
scalar UavWsnNetwork.radioMedium neighbors-247 3
scalar UavWsnNetwork.radioMedium neighbors-248 12
scalar UavWsnNetwork.radioMedium neighbors-249 6
scalar UavWsnNetwork.radioMedium neighbors-250 6
scalar UavWsnNetwork.radioMedium neighbors-251 9
scalar UavWsnNetwork.radioMedium neighbors-252 10
scalar UavWsnNetwork.radioMedium neighbors-253 12
scalar UavWsnNetwork.radioMedium neighbors-254 17
scalar UavWsnNetwork.radioMedium neighbors-255 14
scalar UavWsnNetwork.radioMedium neighbors-256 13
scalar UavWsnNetwork.radioMedium neighbors-257 12
scalar UavWsnNetwork.radioMedium neighbors-258 12
scalar UavWsnNetwork.radioMedium neighbors-259 11
scalar UavWsnNetwork.radioMedium neighbors-260 11
scalar UavWsnNetwork.radioMedium neighbors-261 13
scalar UavWsnNetwork.radioMedium neighbors-262 9
scalar UavWsnNetwork.radioMedium neighbors-263 8
scalar UavWsnNetwork.radioMedium neighbors-264 11
scalar UavWsnNetwork.radioMedium neighbors-265 15
scalar UavWsnNetwork.radioMedium neighbors-266 18
scalar UavWsnNetwork.radioMedium neighbors-267 8
scalar UavWsnNetwork.radioMedium neighbors-268 13
scalar UavWsnNetwork.radioMedium neighbors-269 3
scalar UavWsnNetwork.radioMedium neighbors-270 15
scalar UavWsnNetwork.radioMedium neighbors-271 12
scalar UavWsnNetwork.radioMedium neighbors-272 15
scalar UavWsnNetwork.radioMedium neighbors-273 8
scalar UavWsnNetwork.radioMedium neighbors-274 10
scalar UavWsnNetwork.radioMedium neighbors-275 11
scalar UavWsnNetwork.radioMedium neighbors-276 16
scalar UavWsnNetwork.radioMedium neighbors-277 3
scalar UavWsnNetwork.radioMedium neighbors-278 15
scalar UavWsnNetwork.radioMedium neighbors-279 12
scalar UavWsnNetwork.radioMedium neighbors-280 7
scalar UavWsnNetwork.radioMedium neighbors-281 16
scalar UavWsnNetwork.radioMedium neighbors-282 20
scalar UavWsnNetwork.radioMedium neighbors-283 7
scalar UavWsnNetwork.radioMedium neighbors-284 16
scalar UavWsnNetwork.radioMedium neighbors-285 12
scalar UavWsnNetwork.radioMedium neighbors-286 15
scalar UavWsnNetwork.radioMedium neighbors-287 11
scalar UavWsnNetwork.radioMedium neighbors-288 14
scalar UavWsnNetwork.radioMedium neighbors-289 7
scalar UavWsnNetwork.radioMedium neighbors-290 12
scalar UavWsnNetwork.radioMedium neighbors-291 10
scalar UavWsnNetwork.radioMedium neighbors-292 14
scalar UavWsnNetwork.radioMedium neighbors-293 9
scalar UavWsnNetwork.radioMedium neighbors-294 9
scalar UavWsnNetwork.radioMedium neighbors-295 10
scalar UavWsnNetwork.radioMedium neighbors-296 8
scalar UavWsnNetwork.radioMedium neighbors-297 12
scalar UavWsnNetwork.radioMedium neighbors-298 11
scalar UavWsnNetwork.radioMedium neighbors-299 18
scalar UavWsnNetwork.radioMedium neighbors-300 12
scalar UavWsnNetwork.radioMedium neighbors-301 18
scalar UavWsnNetwork.radioMedium neighbors-302 9
scalar UavWsnNetwork.radioMedium neighbors-303 17
scalar UavWsnNetwork.radioMedium neighbors-304 11
scalar UavWsnNetwork.radioMedium neighbors-305 11
scalar UavWsnNetwork.radioMedium neighbors-306 14
scalar UavWsnNetwork.radioMedium neighbors-307 8
scalar UavWsnNetwork.radioMedium neighbors-308 11
scalar UavWsnNetwork.radioMedium neighbors-309 14
scalar UavWsnNetwork.radioMedium neighbors-310 8
scalar UavWsnNetwork.radioMedium neighbors-311 12
scalar UavWsnNetwork.radioMedium neighbors-312 18
scalar UavWsnNetwork.radioMedium neighbors-313 15
scalar UavWsnNetwork.radioMedium neighbors-314 10
scalar UavWsnNetwork.radioMedium neighbors-315 9
scalar UavWsnNetwork.radioMedium neighbors-316 6
scalar UavWsnNetwork.radioMedium neighbors-317 10
scalar UavWsnNetwork.radioMedium neighbors-318 9
scalar UavWsnNetwork.radioMedium neighbors-319 14
scalar UavWsnNetwork.radioMedium neighbors-320 9
scalar UavWsnNetwork.radioMedium neighbors-321 14
scalar UavWsnNetwork.radioMedium neighbors-322 14
scalar UavWsnNetwork.radioMedium neighbors-323 9
scalar UavWsnNetwork.radioMedium neighbors-324 9
scalar UavWsnNetwork.radioMedium neighbors-325 14
scalar UavWsnNetwork.radioMedium neighbors-326 11
scalar UavWsnNetwork.radioMedium neighbors-327 12
scalar UavWsnNetwork.radioMedium neighbors-328 17
scalar UavWsnNetwork.radioMedium neighbors-329 18
scalar UavWsnNetwork.radioMedium neighbors-330 6
scalar UavWsnNetwork.radioMedium neighbors-331 10
scalar UavWsnNetwork.radioMedium neighbors-332 10
scalar UavWsnNetwork.radioMedium neighbors-333 14
scalar UavWsnNetwork.radioMedium neighbors-334 11
scalar UavWsnNetwork.radioMedium neighbors-335 8
scalar UavWsnNetwork.radioMedium neighbors-336 8
scalar UavWsnNetwork.radioMedium neighbors-337 15
scalar UavWsnNetwork.radioMedium neighbors-338 12
scalar UavWsnNetwork.radioMedium neighbors-339 7
scalar UavWsnNetwork.radioMedium neighbors-340 14
scalar UavWsnNetwork.radioMedium neighbors-341 5
scalar UavWsnNetwork.radioMedium neighbors-342 14
scalar UavWsnNetwork.radioMedium neighbors-343 13
scalar UavWsnNetwork.radioMedium neighbors-344 9
scalar UavWsnNetwork.radioMedium neighbors-345 10
scalar UavWsnNetwork.radioMedium neighbors-346 9
scalar UavWsnNetwork.radioMedium neighbors-347 16
scalar UavWsnNetwork.radioMedium neighbors-348 14
scalar UavWsnNetwork.radioMedium neighbors-349 7
scalar UavWsnNetwork.radioMedium neighbors-350 6
scalar UavWsnNetwork.radioMedium neighbors-351 8
scalar UavWsnNetwork.radioMedium neighbors-352 16
scalar UavWsnNetwork.radioMedium neighbors-353 17
scalar UavWsnNetwork.radioMedium neighbors-354 13
scalar UavWsnNetwork.radioMedium neighbors-355 4
scalar UavWsnNetwork.radioMedium neighbors-356 8
scalar UavWsnNetwork.radioMedium neighbors-357 7
scalar UavWsnNetwork.radioMedium neighbors-358 13
scalar UavWsnNetwork.radioMedium neighbors-359 7
scalar UavWsnNetwork.radioMedium neighbors-360 3
scalar UavWsnNetwork.radioMedium neighbors-361 11
scalar UavWsnNetwork.radioMedium neighbors-362 8
scalar UavWsnNetwork.radioMedium neighbors-363 14
scalar UavWsnNetwork.radioMedium neighbors-364 5
scalar UavWsnNetwork.radioMedium neighbors-365 13
scalar UavWsnNetwork.radioMedium neighbors-366 4
scalar UavWsnNetwork.radioMedium neighbors-367 9
scalar UavWsnNetwork.radioMedium neighbors-368 12
scalar UavWsnNetwork.radioMedium neighbors-369 13
scalar UavWsnNetwork.radioMedium neighbors-370 5
scalar UavWsnNetwork.radioMedium neighbors-371 8
scalar UavWsnNetwork.radioMedium neighbors-372 7
scalar UavWsnNetwork.radioMedium neighbors-373 10
scalar UavWsnNetwork.radioMedium neighbors-374 8
scalar UavWsnNetwork.radioMedium neighbors-375 7
scalar UavWsnNetwork.radioMedium neighbors-376 15
scalar UavWsnNetwork.radioMedium neighbors-377 17
scalar UavWsnNetwork.radioMedium neighbors-378 17
scalar UavWsnNetwork.radioMedium neighbors-379 11
scalar UavWsnNetwork.radioMedium neighbors-380 10
scalar UavWsnNetwork.radioMedium neighbors-381 14
scalar UavWsnNetwork.radioMedium neighbors-382 7
scalar UavWsnNetwork.radioMedium neighbors-383 16
scalar UavWsnNetwork.radioMedium neighbors-384 17
scalar UavWsnNetwork.radioMedium neighbors-385 10
scalar UavWsnNetwork.radioMedium neighbors-386 10
scalar UavWsnNetwork.radioMedium neighbors-387 15
scalar UavWsnNetwork.radioMedium neighbors-388 9
scalar UavWsnNetwork.radioMedium neighbors-389 10
scalar UavWsnNetwork.radioMedium neighbors-390 11
scalar UavWsnNetwork.radioMedium neighbors-391 12
scalar UavWsnNetwork.radioMedium neighbors-392 11
scalar UavWsnNetwork.radioMedium neighbors-393 8
scalar UavWsnNetwork.radioMedium neighbors-394 12
scalar UavWsnNetwork.radioMedium neighbors-395 14
scalar UavWsnNetwork.radioMedium neighbors-396 15
scalar UavWsnNetwork.radioMedium neighbors-397 9
scalar UavWsnNetwork.radioMedium neighbors-398 13
scalar UavWsnNetwork.radioMedium neighbors-399 18
scalar UavWsnNetwork.radioMedium neighbors-400 1
scalar UavWsnNetwork.radioMedium neighbors-401 1
scalar UavWsnNetwork.radioMedium avgNeighbors 11.318407960199
scalar UavWsnNetwork.sensors[367] dataGenerated 1
scalar UavWsnNetwork.sensors[390] dataGenerated 1
scalar UavWsnNetwork.sensors[344] dataGenerated 1
scalar UavWsnNetwork.sensors[180] dataGenerated 1
scalar UavWsnNetwork.sensors[19] dataGenerated 1
scalar UavWsnNetwork.sensors[368] dataGenerated 1
scalar UavWsnNetwork.sensors[155] dataGenerated 1
scalar UavWsnNetwork.sensors[212] dataGenerated 1
scalar UavWsnNetwork.sensors[392] dataGenerated 1
scalar UavWsnNetwork.sensors[282] dataGenerated 1
scalar UavWsnNetwork.sensors[187] dataGenerated 1
scalar UavWsnNetwork.sensors[151] dataGenerated 1
scalar UavWsnNetwork.sensors[38] dataGenerated 1
scalar UavWsnNetwork.sensors[303] dataGenerated 1
scalar UavWsnNetwork.sensors[72] dataGenerated 1
scalar UavWsnNetwork.sensors[230] dataGenerated 1
scalar UavWsnNetwork.sensors[11] dataGenerated 1
scalar UavWsnNetwork.sensors[222] dataGenerated 1
scalar UavWsnNetwork.sensors[113] dataGenerated 1
scalar UavWsnNetwork.sensors[136] dataGenerated 1
scalar UavWsnNetwork.sensors[191] dataGenerated 1
scalar UavWsnNetwork.sensors[94] dataGenerated 1
scalar UavWsnNetwork.sensors[289] dataGenerated 1
scalar UavWsnNetwork.sensors[341] dataGenerated 1
scalar UavWsnNetwork.sensors[393] dataGenerated 1
scalar UavWsnNetwork.sensors[371] dataGenerated 1
scalar UavWsnNetwork.sensors[213] dataGenerated 1
scalar UavWsnNetwork.sensors[357] dataGenerated 1
scalar UavWsnNetwork.sensors[127] dataGenerated 1
scalar UavWsnNetwork.sensors[258] dataGenerated 1
scalar UavWsnNetwork.sensors[207] dataGenerated 1
scalar UavWsnNetwork.sensors[305] dataGenerated 1
scalar UavWsnNetwork.sensors[398] dataGenerated 1
scalar UavWsnNetwork.sensors[232] dataGenerated 1
scalar UavWsnNetwork.sensors[240] dataGenerated 1
scalar UavWsnNetwork.sensors[48] dataGenerated 1
scalar UavWsnNetwork.sensors[238] dataGenerated 1
scalar UavWsnNetwork.sensors[5] dataGenerated 1
scalar UavWsnNetwork.sensors[345] dataGenerated 1
scalar UavWsnNetwork.sensors[33] dataGenerated 1
scalar UavWsnNetwork.sensors[330] dataGenerated 1
scalar UavWsnNetwork.sensors[396] dataGenerated 1
scalar UavWsnNetwork.sensors[277] dataGenerated 1
scalar UavWsnNetwork.sensors[294] dataGenerated 1
scalar UavWsnNetwork.sensors[381] dataGenerated 1
scalar UavWsnNetwork.sensors[211] dataGenerated 1
scalar UavWsnNetwork.sensors[104] dataGenerated 1
scalar UavWsnNetwork.sensors[317] dataGenerated 1
scalar UavWsnNetwork.sensors[169] dataGenerated 1
scalar UavWsnNetwork.sensors[42] dataGenerated 1
scalar UavWsnNetwork.sensors[119] dataGenerated 1
scalar UavWsnNetwork.sensors[145] dataGenerated 1
scalar UavWsnNetwork.sensors[300] dataGenerated 1
scalar UavWsnNetwork.sensors[70] dataGenerated 1
scalar UavWsnNetwork.sensors[319] dataGenerated 1
scalar UavWsnNetwork.sensors[99] dataGenerated 1
scalar UavWsnNetwork.sensors[331] dataGenerated 1
scalar UavWsnNetwork.sensors[320] dataGenerated 1
scalar UavWsnNetwork.sensors[3] dataGenerated 1
scalar UavWsnNetwork.sensors[364] dataGenerated 1
scalar UavWsnNetwork.sensors[167] dataGenerated 1
scalar UavWsnNetwork.sensors[114] dataGenerated 1
scalar UavWsnNetwork.sensors[154] dataGenerated 1
scalar UavWsnNetwork.sensors[375] dataGenerated 1
scalar UavWsnNetwork.sensors[78] dataGenerated 1
scalar UavWsnNetwork.sensors[373] dataGenerated 1
scalar UavWsnNetwork.sensors[382] dataGenerated 1
scalar UavWsnNetwork.sensors[102] dataGenerated 1
scalar UavWsnNetwork.sensors[366] dataGenerated 1
scalar UavWsnNetwork.sensors[121] dataGenerated 1
scalar UavWsnNetwork.sensors[108] dataGenerated 1
scalar UavWsnNetwork.sensors[321] dataGenerated 1
scalar UavWsnNetwork.sensors[92] dataGenerated 1
scalar UavWsnNetwork.sensors[192] dataGenerated 1
scalar UavWsnNetwork.sensors[148] dataGenerated 1
scalar UavWsnNetwork.sensors[134] dataGenerated 1
scalar UavWsnNetwork.sensors[106] dataGenerated 1
scalar UavWsnNetwork.sensors[202] dataGenerated 1
scalar UavWsnNetwork.sensors[285] dataGenerated 1
scalar UavWsnNetwork.sensors[116] dataGenerated 1
scalar UavWsnNetwork.sensors[297] dataGenerated 1
scalar UavWsnNetwork.sensors[338] dataGenerated 1
scalar UavWsnNetwork.sensors[193] dataGenerated 1
scalar UavWsnNetwork.sensors[198] dataGenerated 1
scalar UavWsnNetwork.sensors[298] dataGenerated 1
scalar UavWsnNetwork.sensors[126] dataGenerated 1
scalar UavWsnNetwork.sensors[133] dataGenerated 1
scalar UavWsnNetwork.sensors[239] dataGenerated 1
scalar UavWsnNetwork.sensors[299] dataGenerated 1
scalar UavWsnNetwork.sensors[245] dataGenerated 1
scalar UavWsnNetwork.sensors[88] dataGenerated 1
scalar UavWsnNetwork.sensors[273] dataGenerated 1
scalar UavWsnNetwork.sensors[140] dataGenerated 1
scalar UavWsnNetwork.sensors[369] dataGenerated 1
scalar UavWsnNetwork.sensors[362] dataGenerated 1
scalar UavWsnNetwork.sensors[73] dataGenerated 1
scalar UavWsnNetwork.sensors[279] dataGenerated 1
scalar UavWsnNetwork.sensors[354] dataGenerated 1
scalar UavWsnNetwork.sensors[181] dataGenerated 1
scalar UavWsnNetwork.sensors[179] dataGenerated 1
scalar UavWsnNetwork.sensors[175] dataGenerated 1
scalar UavWsnNetwork.sensors[182] dataGenerated 1
scalar UavWsnNetwork.sensors[152] dataGenerated 1
scalar UavWsnNetwork.sensors[394] dataGenerated 1
scalar UavWsnNetwork.sensors[1] dataGenerated 1
scalar UavWsnNetwork.sensors[262] dataGenerated 1
scalar UavWsnNetwork.sensors[267] dataGenerated 1
scalar UavWsnNetwork.sensors[278] dataGenerated 1
scalar UavWsnNetwork.sensors[184] dataGenerated 1
scalar UavWsnNetwork.sensors[309] dataGenerated 1
scalar UavWsnNetwork.sensors[386] dataGenerated 1
scalar UavWsnNetwork.sensors[55] dataGenerated 1
scalar UavWsnNetwork.sensors[83] dataGenerated 1
scalar UavWsnNetwork.sensors[195] dataGenerated 1
scalar UavWsnNetwork.sensors[112] dataGenerated 1
scalar UavWsnNetwork.sensors[288] dataGenerated 1
scalar UavWsnNetwork.sensors[16] dataGenerated 1
scalar UavWsnNetwork.sensors[43] dataGenerated 1
scalar UavWsnNetwork.sensors[65] dataGenerated 1
scalar UavWsnNetwork.sensors[385] dataGenerated 1
scalar UavWsnNetwork.sensors[372] dataGenerated 1
scalar UavWsnNetwork.sensors[122] dataGenerated 1
scalar UavWsnNetwork.sensors[75] dataGenerated 1
scalar UavWsnNetwork.sensors[79] dataGenerated 1
scalar UavWsnNetwork.sensors[228] dataGenerated 1
scalar UavWsnNetwork.sensors[376] dataGenerated 1
scalar UavWsnNetwork.sensors[146] dataGenerated 1
scalar UavWsnNetwork.sensors[310] dataGenerated 1
scalar UavWsnNetwork.sensors[129] dataGenerated 1
scalar UavWsnNetwork.sensors[144] dataGenerated 1
scalar UavWsnNetwork.sensors[353] dataGenerated 1
scalar UavWsnNetwork.sensors[137] dataGenerated 1
scalar UavWsnNetwork.sensors[399] dataGenerated 1
scalar UavWsnNetwork.sensors[220] dataGenerated 1
scalar UavWsnNetwork.sensors[86] dataGenerated 1
scalar UavWsnNetwork.sensors[170] dataGenerated 1
scalar UavWsnNetwork.sensors[270] dataGenerated 1
scalar UavWsnNetwork.sensors[234] dataGenerated 1
scalar UavWsnNetwork.sensors[221] dataGenerated 1
scalar UavWsnNetwork.sensors[308] dataGenerated 1
scalar UavWsnNetwork.sensors[158] dataGenerated 1
scalar UavWsnNetwork.sensors[101] dataGenerated 1
scalar UavWsnNetwork.sensors[295] dataGenerated 1
scalar UavWsnNetwork.sensors[291] dataGenerated 1
scalar UavWsnNetwork.sensors[231] dataGenerated 1
scalar UavWsnNetwork.sensors[25] dataGenerated 1
scalar UavWsnNetwork.sensors[9] dataGenerated 1
scalar UavWsnNetwork.sensors[4] dataGenerated 1
scalar UavWsnNetwork.sensors[214] dataGenerated 1
scalar UavWsnNetwork.sensors[97] dataGenerated 1
scalar UavWsnNetwork.sensors[186] dataGenerated 1
scalar UavWsnNetwork.sensors[325] dataGenerated 1
scalar UavWsnNetwork.sensors[358] dataGenerated 1
scalar UavWsnNetwork.sensors[261] dataGenerated 1
scalar UavWsnNetwork.sensors[28] dataGenerated 1
scalar UavWsnNetwork.sensors[12] dataGenerated 1
scalar UavWsnNetwork.sensors[388] dataGenerated 1
scalar UavWsnNetwork.sensors[159] dataGenerated 1
scalar UavWsnNetwork.sensors[111] dataGenerated 1
scalar UavWsnNetwork.sensors[312] dataGenerated 1
scalar UavWsnNetwork.sensors[100] dataGenerated 1
scalar UavWsnNetwork.sensors[216] dataGenerated 1
scalar UavWsnNetwork.sensors[383] dataGenerated 1
scalar UavWsnNetwork.sensors[276] dataGenerated 1
scalar UavWsnNetwork.sensors[132] dataGenerated 1
scalar UavWsnNetwork.sensors[176] dataGenerated 1
scalar UavWsnNetwork.sensors[284] dataGenerated 1
scalar UavWsnNetwork.sensors[346] dataGenerated 1
scalar UavWsnNetwork.sensors[342] dataGenerated 1
scalar UavWsnNetwork.sensors[107] dataGenerated 1
scalar UavWsnNetwork.sensors[142] dataGenerated 1
scalar UavWsnNetwork.sensors[219] dataGenerated 1
scalar UavWsnNetwork.sensors[243] dataGenerated 1
scalar UavWsnNetwork.sensors[223] dataGenerated 1
scalar UavWsnNetwork.sensors[263] dataGenerated 1
scalar UavWsnNetwork.sensors[189] dataGenerated 1
scalar UavWsnNetwork.sensors[315] dataGenerated 1
scalar UavWsnNetwork.sensors[162] dataGenerated 1
scalar UavWsnNetwork.sensors[120] dataGenerated 1
scalar UavWsnNetwork.sensors[8] dataGenerated 1
scalar UavWsnNetwork.sensors[387] dataGenerated 1
scalar UavWsnNetwork.sensors[173] dataGenerated 1
scalar UavWsnNetwork.sensors[13] dataGenerated 1
scalar UavWsnNetwork.sensors[149] dataGenerated 1
scalar UavWsnNetwork.sensors[316] dataGenerated 1
scalar UavWsnNetwork.sensors[304] dataGenerated 1
scalar UavWsnNetwork.sensors[237] dataGenerated 1
scalar UavWsnNetwork.sensors[208] dataGenerated 1
scalar UavWsnNetwork.sensors[110] dataGenerated 1
scalar UavWsnNetwork.sensors[326] dataGenerated 1
scalar UavWsnNetwork.sensors[76] dataGenerated 1
scalar UavWsnNetwork.sensors[209] dataGenerated 1
scalar UavWsnNetwork.sensors[59] dataGenerated 1
scalar UavWsnNetwork.sensors[196] dataGenerated 1
scalar UavWsnNetwork.sensors[85] dataGenerated 1
scalar UavWsnNetwork.sensors[68] dataGenerated 1
scalar UavWsnNetwork.sensors[6] dataGenerated 1
scalar UavWsnNetwork.sensors[46] dataGenerated 1
scalar UavWsnNetwork.sensors[82] dataGenerated 1
scalar UavWsnNetwork.sensors[206] dataGenerated 1
scalar UavWsnNetwork.sensors[91] dataGenerated 1
scalar UavWsnNetwork.sensors[185] dataGenerated 1
scalar UavWsnNetwork.sensors[384] dataGenerated 1
scalar UavWsnNetwork.sensors[380] dataGenerated 1
scalar UavWsnNetwork.sensors[281] dataGenerated 1
scalar UavWsnNetwork.sensors[293] dataGenerated 1
scalar UavWsnNetwork.sensors[259] dataGenerated 1
scalar UavWsnNetwork.sensors[350] dataGenerated 1
scalar UavWsnNetwork.sensors[218] dataGenerated 1
scalar UavWsnNetwork.sensors[359] dataGenerated 1
scalar UavWsnNetwork.sensors[194] dataGenerated 1
scalar UavWsnNetwork.sensors[264] dataGenerated 1
scalar UavWsnNetwork.sensors[178] dataGenerated 1
scalar UavWsnNetwork.sensors[314] dataGenerated 1
scalar UavWsnNetwork.sensors[52] dataGenerated 1
scalar UavWsnNetwork.sensors[340] dataGenerated 1
scalar UavWsnNetwork.sensors[363] dataGenerated 1
scalar UavWsnNetwork.sensors[2] dataGenerated 1
scalar UavWsnNetwork.sensors[171] dataGenerated 1
scalar UavWsnNetwork.sensors[334] dataGenerated 1
scalar UavWsnNetwork.sensors[248] dataGenerated 1
scalar UavWsnNetwork.sensors[24] dataGenerated 1
scalar UavWsnNetwork.sensors[57] dataGenerated 1
scalar UavWsnNetwork.sensors[96] dataGenerated 1
scalar UavWsnNetwork.sensors[244] dataGenerated 1
scalar UavWsnNetwork.sensors[166] dataGenerated 1
scalar UavWsnNetwork.sensors[117] dataGenerated 1
scalar UavWsnNetwork.sensors[23] dataGenerated 1
scalar UavWsnNetwork.sensors[260] dataGenerated 1
scalar UavWsnNetwork.sensors[141] dataGenerated 1
scalar UavWsnNetwork.sensors[31] dataGenerated 1
scalar UavWsnNetwork.sensors[64] dataGenerated 1
scalar UavWsnNetwork.sensors[347] dataGenerated 1
scalar UavWsnNetwork.sensors[395] dataGenerated 1
scalar UavWsnNetwork.sensors[306] dataGenerated 1
scalar UavWsnNetwork.sensors[287] dataGenerated 1
scalar UavWsnNetwork.sensors[307] dataGenerated 1
scalar UavWsnNetwork.sensors[252] dataGenerated 1
scalar UavWsnNetwork.sensors[204] dataGenerated 1
scalar UavWsnNetwork.sensors[21] dataGenerated 1
scalar UavWsnNetwork.sensors[130] dataGenerated 1
scalar UavWsnNetwork.sensors[249] dataGenerated 1
scalar UavWsnNetwork.sensors[356] dataGenerated 1
scalar UavWsnNetwork.sensors[41] dataGenerated 1
scalar UavWsnNetwork.sensors[143] dataGenerated 1
scalar UavWsnNetwork.sensors[391] dataGenerated 1
scalar UavWsnNetwork.sensors[349] dataGenerated 1
scalar UavWsnNetwork.sensors[49] dataGenerated 1
scalar UavWsnNetwork.sensors[183] dataGenerated 1
scalar UavWsnNetwork.sensors[210] dataGenerated 1
scalar UavWsnNetwork.sensors[339] dataGenerated 1
scalar UavWsnNetwork.sensors[172] dataGenerated 1
scalar UavWsnNetwork.sensors[135] dataGenerated 1
scalar UavWsnNetwork.sensors[124] dataGenerated 1
scalar UavWsnNetwork.sensors[301] dataGenerated 1
scalar UavWsnNetwork.sensors[150] dataGenerated 1
scalar UavWsnNetwork.sensors[58] dataGenerated 1
scalar UavWsnNetwork.sensors[98] dataGenerated 1
scalar UavWsnNetwork.sensors[63] dataGenerated 1
scalar UavWsnNetwork.sensors[272] dataGenerated 1
scalar UavWsnNetwork.sensors[77] dataGenerated 1
scalar UavWsnNetwork.sensors[374] dataGenerated 1
scalar UavWsnNetwork.sensors[37] dataGenerated 1
scalar UavWsnNetwork.sensors[355] dataGenerated 1
scalar UavWsnNetwork.sensors[205] dataGenerated 1
scalar UavWsnNetwork.sensors[18] dataGenerated 1
scalar UavWsnNetwork.sensors[200] dataGenerated 1
scalar UavWsnNetwork.sensors[327] dataGenerated 1
scalar UavWsnNetwork.sensors[32] dataGenerated 1
scalar UavWsnNetwork.sensors[22] dataGenerated 1
scalar UavWsnNetwork.sensors[203] dataGenerated 1
scalar UavWsnNetwork.sensors[256] dataGenerated 1
scalar UavWsnNetwork.sensors[40] dataGenerated 1
scalar UavWsnNetwork.sensors[156] dataGenerated 1
scalar UavWsnNetwork.sensors[201] dataGenerated 1
scalar UavWsnNetwork.sensors[7] dataGenerated 1
scalar UavWsnNetwork.sensors[51] dataGenerated 1
scalar UavWsnNetwork.sensors[164] dataGenerated 1
scalar UavWsnNetwork.sensors[286] dataGenerated 1
scalar UavWsnNetwork.sensors[337] dataGenerated 1
scalar UavWsnNetwork.sensors[271] dataGenerated 1
scalar UavWsnNetwork.sensors[290] dataGenerated 1
scalar UavWsnNetwork.sensors[313] dataGenerated 1
scalar UavWsnNetwork.sensors[365] dataGenerated 1
scalar UavWsnNetwork.sensors[125] dataGenerated 1
scalar UavWsnNetwork.sensors[47] dataGenerated 1
scalar UavWsnNetwork.sensors[39] dataGenerated 1
scalar UavWsnNetwork.sensors[246] dataGenerated 1
scalar UavWsnNetwork.sensors[242] dataGenerated 1
scalar UavWsnNetwork.sensors[292] dataGenerated 1
scalar UavWsnNetwork.sensors[389] dataGenerated 1
scalar UavWsnNetwork.sensors[197] dataGenerated 1
scalar UavWsnNetwork.sensors[20] dataGenerated 1
scalar UavWsnNetwork.sensors[332] dataGenerated 1
scalar UavWsnNetwork.sensors[14] dataGenerated 1
scalar UavWsnNetwork.sensors[0] dataGenerated 1
scalar UavWsnNetwork.sensors[352] dataGenerated 1
scalar UavWsnNetwork.sensors[274] dataGenerated 1
scalar UavWsnNetwork.sensors[54] dataGenerated 1
scalar UavWsnNetwork.sensors[236] dataGenerated 1
scalar UavWsnNetwork.sensors[165] dataGenerated 1
scalar UavWsnNetwork.sensors[283] dataGenerated 1
scalar UavWsnNetwork.sensors[123] dataGenerated 1
scalar UavWsnNetwork.sensors[139] dataGenerated 1
scalar UavWsnNetwork.sensors[69] dataGenerated 1
scalar UavWsnNetwork.sensors[215] dataGenerated 1
scalar UavWsnNetwork.sensors[44] dataGenerated 1
scalar UavWsnNetwork.sensors[115] dataGenerated 1
scalar UavWsnNetwork.sensors[35] dataGenerated 1
scalar UavWsnNetwork.sensors[253] dataGenerated 1
scalar UavWsnNetwork.sensors[254] dataGenerated 1
scalar UavWsnNetwork.sensors[235] dataGenerated 1
scalar UavWsnNetwork.sensors[67] dataGenerated 1
scalar UavWsnNetwork.sensors[177] dataGenerated 1
scalar UavWsnNetwork.sensors[168] dataGenerated 1
scalar UavWsnNetwork.sensors[328] dataGenerated 1
scalar UavWsnNetwork.sensors[174] dataGenerated 1
scalar UavWsnNetwork.sensors[226] dataGenerated 1
scalar UavWsnNetwork.sensors[266] dataGenerated 1
scalar UavWsnNetwork.sensors[10] dataGenerated 1
scalar UavWsnNetwork.sensors[17] dataGenerated 1
scalar UavWsnNetwork.sensors[89] dataGenerated 1
scalar UavWsnNetwork.sensors[280] dataGenerated 1
scalar UavWsnNetwork.sensors[29] dataGenerated 1
scalar UavWsnNetwork.sensors[351] dataGenerated 1
scalar UavWsnNetwork.sensors[50] dataGenerated 1
scalar UavWsnNetwork.sensors[90] dataGenerated 1
scalar UavWsnNetwork.sensors[74] dataGenerated 1
scalar UavWsnNetwork.sensors[188] dataGenerated 1
scalar UavWsnNetwork.sensors[265] dataGenerated 1
scalar UavWsnNetwork.sensors[247] dataGenerated 1
scalar UavWsnNetwork.sensors[62] dataGenerated 1
scalar UavWsnNetwork.sensors[379] dataGenerated 1
scalar UavWsnNetwork.sensors[103] dataGenerated 1
scalar UavWsnNetwork.sensors[336] dataGenerated 1
scalar UavWsnNetwork.sensors[348] dataGenerated 1
scalar UavWsnNetwork.sensors[343] dataGenerated 1
scalar UavWsnNetwork.sensors[397] dataGenerated 1
scalar UavWsnNetwork.sensors[53] dataGenerated 1
scalar UavWsnNetwork.sensors[160] dataGenerated 1
scalar UavWsnNetwork.sensors[322] dataGenerated 1
scalar UavWsnNetwork.sensors[153] dataGenerated 1
scalar UavWsnNetwork.sensors[157] dataGenerated 1
scalar UavWsnNetwork.sensors[61] dataGenerated 1
scalar UavWsnNetwork.sensors[109] dataGenerated 1
scalar UavWsnNetwork.sensors[128] dataGenerated 1
scalar UavWsnNetwork.sensors[84] dataGenerated 1
scalar UavWsnNetwork.sensors[225] dataGenerated 1
scalar UavWsnNetwork.sensors[95] dataGenerated 1
scalar UavWsnNetwork.sensors[81] dataGenerated 1
scalar UavWsnNetwork.sensors[80] dataGenerated 1
scalar UavWsnNetwork.sensors[60] dataGenerated 1
scalar UavWsnNetwork.sensors[45] dataGenerated 1
scalar UavWsnNetwork.sensors[241] dataGenerated 1
scalar UavWsnNetwork.sensors[360] dataGenerated 1
scalar UavWsnNetwork.sensors[251] dataGenerated 1
scalar UavWsnNetwork.sensors[87] dataGenerated 1
scalar UavWsnNetwork.sensors[250] dataGenerated 1
scalar UavWsnNetwork.sensors[224] dataGenerated 1
scalar UavWsnNetwork.sensors[370] dataGenerated 1
scalar UavWsnNetwork.sensors[311] dataGenerated 1
scalar UavWsnNetwork.sensors[15] dataGenerated 1
scalar UavWsnNetwork.sensors[296] dataGenerated 1
scalar UavWsnNetwork.sensors[378] dataGenerated 1
scalar UavWsnNetwork.sensors[329] dataGenerated 1
scalar UavWsnNetwork.sensors[257] dataGenerated 1
scalar UavWsnNetwork.sensors[199] dataGenerated 1
scalar UavWsnNetwork.sensors[71] dataGenerated 1
scalar UavWsnNetwork.sensors[233] dataGenerated 1
scalar UavWsnNetwork.sensors[269] dataGenerated 1
scalar UavWsnNetwork.sensors[118] dataGenerated 1
scalar UavWsnNetwork.sensors[229] dataGenerated 1
scalar UavWsnNetwork.sensors[161] dataGenerated 1
scalar UavWsnNetwork.sensors[217] dataGenerated 1
scalar UavWsnNetwork.sensors[324] dataGenerated 1
scalar UavWsnNetwork.sensors[361] dataGenerated 1
scalar UavWsnNetwork.sensors[335] dataGenerated 1
scalar UavWsnNetwork.sensors[93] dataGenerated 1
scalar UavWsnNetwork.sensors[302] dataGenerated 1
scalar UavWsnNetwork.sensors[318] dataGenerated 1
scalar UavWsnNetwork.sensors[105] dataGenerated 1
scalar UavWsnNetwork.sensors[377] dataGenerated 1
scalar UavWsnNetwork.sensors[131] dataGenerated 1
scalar UavWsnNetwork.sensors[26] dataGenerated 1
scalar UavWsnNetwork.sensors[227] dataGenerated 1
scalar UavWsnNetwork.sensors[333] dataGenerated 1
scalar UavWsnNetwork.sensors[163] dataGenerated 1
scalar UavWsnNetwork.sensors[190] dataGenerated 1
scalar UavWsnNetwork.sensors[275] dataGenerated 1
scalar UavWsnNetwork.sensors[138] dataGenerated 1
scalar UavWsnNetwork.sensors[255] dataGenerated 1
scalar UavWsnNetwork.sensors[268] dataGenerated 1
scalar UavWsnNetwork.sensors[30] dataGenerated 1
scalar UavWsnNetwork.sensors[27] dataGenerated 1
scalar UavWsnNetwork.sensors[323] dataGenerated 1
scalar UavWsnNetwork.sensors[34] dataGenerated 1
scalar UavWsnNetwork.sensors[66] dataGenerated 1
scalar UavWsnNetwork.sensors[147] dataGenerated 1
scalar UavWsnNetwork.sensors[36] dataGenerated 1
scalar UavWsnNetwork.sensors[56] dataGenerated 1
scalar UavWsnNetwork.radioMedium roundIndex 0
scalar UavWsnNetwork.radioMedium totalNetworkEnergy 198.82378880277
scalar UavWsnNetwork.radioMedium controlPacketCount 49614
scalar UavWsnNetwork.sensors[367] dataGenerated 1
scalar UavWsnNetwork.sensors[390] dataGenerated 1
scalar UavWsnNetwork.sensors[344] dataGenerated 1
scalar UavWsnNetwork.sensors[180] dataGenerated 1
scalar UavWsnNetwork.sensors[19] dataGenerated 1
scalar UavWsnNetwork.sensors[368] dataGenerated 1
scalar UavWsnNetwork.sensors[155] dataGenerated 1
scalar UavWsnNetwork.sensors[212] dataGenerated 1
scalar UavWsnNetwork.sensors[392] dataGenerated 1
scalar UavWsnNetwork.sensors[282] dataGenerated 1
scalar UavWsnNetwork.sensors[187] dataGenerated 1
scalar UavWsnNetwork.sensors[151] dataGenerated 1
scalar UavWsnNetwork.sensors[38] dataGenerated 1
scalar UavWsnNetwork.sensors[303] dataGenerated 1
scalar UavWsnNetwork.sensors[72] dataGenerated 1
scalar UavWsnNetwork.sensors[230] dataGenerated 1
scalar UavWsnNetwork.sensors[11] dataGenerated 1
scalar UavWsnNetwork.sensors[222] dataGenerated 1
scalar UavWsnNetwork.sensors[113] dataGenerated 1
scalar UavWsnNetwork.sensors[136] dataGenerated 1
scalar UavWsnNetwork.sensors[191] dataGenerated 1
scalar UavWsnNetwork.sensors[94] dataGenerated 1
scalar UavWsnNetwork.sensors[289] dataGenerated 1
scalar UavWsnNetwork.sensors[341] dataGenerated 1
scalar UavWsnNetwork.sensors[393] dataGenerated 1
scalar UavWsnNetwork.sensors[371] dataGenerated 1
scalar UavWsnNetwork.sensors[213] dataGenerated 1
scalar UavWsnNetwork.sensors[357] dataGenerated 1
scalar UavWsnNetwork.sensors[127] dataGenerated 1
scalar UavWsnNetwork.sensors[258] dataGenerated 1
scalar UavWsnNetwork.sensors[207] dataGenerated 1
scalar UavWsnNetwork.sensors[305] dataGenerated 1
scalar UavWsnNetwork.sensors[398] dataGenerated 1
scalar UavWsnNetwork.sensors[232] dataGenerated 1
scalar UavWsnNetwork.sensors[240] dataGenerated 1
scalar UavWsnNetwork.sensors[48] dataGenerated 1
scalar UavWsnNetwork.sensors[238] dataGenerated 1
scalar UavWsnNetwork.sensors[5] dataGenerated 1
scalar UavWsnNetwork.sensors[345] dataGenerated 1
scalar UavWsnNetwork.sensors[33] dataGenerated 1
scalar UavWsnNetwork.sensors[330] dataGenerated 1
scalar UavWsnNetwork.sensors[396] dataGenerated 1
scalar UavWsnNetwork.sensors[277] dataGenerated 1
scalar UavWsnNetwork.sensors[294] dataGenerated 1
scalar UavWsnNetwork.sensors[381] dataGenerated 1
scalar UavWsnNetwork.sensors[211] dataGenerated 1
scalar UavWsnNetwork.sensors[104] dataGenerated 1
scalar UavWsnNetwork.sensors[317] dataGenerated 1
scalar UavWsnNetwork.sensors[169] dataGenerated 1
scalar UavWsnNetwork.sensors[42] dataGenerated 1
scalar UavWsnNetwork.sensors[119] dataGenerated 1
scalar UavWsnNetwork.sensors[145] dataGenerated 1
scalar UavWsnNetwork.sensors[300] dataGenerated 1
scalar UavWsnNetwork.sensors[70] dataGenerated 1
scalar UavWsnNetwork.sensors[319] dataGenerated 1
scalar UavWsnNetwork.sensors[99] dataGenerated 1
scalar UavWsnNetwork.sensors[331] dataGenerated 1
scalar UavWsnNetwork.sensors[320] dataGenerated 1
scalar UavWsnNetwork.sensors[3] dataGenerated 1
scalar UavWsnNetwork.sensors[364] dataGenerated 1
scalar UavWsnNetwork.sensors[167] dataGenerated 1
scalar UavWsnNetwork.sensors[114] dataGenerated 1
scalar UavWsnNetwork.sensors[154] dataGenerated 1
scalar UavWsnNetwork.sensors[375] dataGenerated 1
scalar UavWsnNetwork.sensors[78] dataGenerated 1
scalar UavWsnNetwork.sensors[373] dataGenerated 1
scalar UavWsnNetwork.sensors[382] dataGenerated 1
scalar UavWsnNetwork.sensors[102] dataGenerated 1
scalar UavWsnNetwork.sensors[366] dataGenerated 1
scalar UavWsnNetwork.sensors[121] dataGenerated 1
scalar UavWsnNetwork.sensors[108] dataGenerated 1
scalar UavWsnNetwork.sensors[321] dataGenerated 1
scalar UavWsnNetwork.sensors[92] dataGenerated 1
scalar UavWsnNetwork.sensors[192] dataGenerated 1
scalar UavWsnNetwork.sensors[148] dataGenerated 1
scalar UavWsnNetwork.sensors[134] dataGenerated 1
scalar UavWsnNetwork.sensors[106] dataGenerated 1
scalar UavWsnNetwork.sensors[202] dataGenerated 1
scalar UavWsnNetwork.sensors[285] dataGenerated 1
scalar UavWsnNetwork.sensors[116] dataGenerated 1
scalar UavWsnNetwork.sensors[297] dataGenerated 1
scalar UavWsnNetwork.sensors[338] dataGenerated 1
scalar UavWsnNetwork.sensors[193] dataGenerated 1
scalar UavWsnNetwork.sensors[198] dataGenerated 1
scalar UavWsnNetwork.sensors[298] dataGenerated 1
scalar UavWsnNetwork.sensors[126] dataGenerated 1
scalar UavWsnNetwork.sensors[133] dataGenerated 1
scalar UavWsnNetwork.sensors[239] dataGenerated 1
scalar UavWsnNetwork.sensors[299] dataGenerated 1
scalar UavWsnNetwork.sensors[245] dataGenerated 1
scalar UavWsnNetwork.sensors[88] dataGenerated 1
scalar UavWsnNetwork.sensors[273] dataGenerated 1
scalar UavWsnNetwork.sensors[140] dataGenerated 1
scalar UavWsnNetwork.sensors[369] dataGenerated 1
scalar UavWsnNetwork.sensors[362] dataGenerated 1
scalar UavWsnNetwork.sensors[73] dataGenerated 1
scalar UavWsnNetwork.sensors[279] dataGenerated 1
scalar UavWsnNetwork.sensors[354] dataGenerated 1
scalar UavWsnNetwork.sensors[181] dataGenerated 1
scalar UavWsnNetwork.sensors[179] dataGenerated 1
scalar UavWsnNetwork.sensors[175] dataGenerated 1
scalar UavWsnNetwork.sensors[182] dataGenerated 1
scalar UavWsnNetwork.sensors[152] dataGenerated 1
scalar UavWsnNetwork.sensors[394] dataGenerated 1
scalar UavWsnNetwork.sensors[1] dataGenerated 1
scalar UavWsnNetwork.sensors[262] dataGenerated 1
scalar UavWsnNetwork.sensors[267] dataGenerated 1
scalar UavWsnNetwork.sensors[278] dataGenerated 1
scalar UavWsnNetwork.sensors[184] dataGenerated 1
scalar UavWsnNetwork.sensors[309] dataGenerated 1
scalar UavWsnNetwork.sensors[386] dataGenerated 1
scalar UavWsnNetwork.sensors[55] dataGenerated 1
scalar UavWsnNetwork.sensors[83] dataGenerated 1
scalar UavWsnNetwork.sensors[195] dataGenerated 1
scalar UavWsnNetwork.sensors[112] dataGenerated 1
scalar UavWsnNetwork.sensors[288] dataGenerated 1
scalar UavWsnNetwork.sensors[16] dataGenerated 1
scalar UavWsnNetwork.sensors[43] dataGenerated 1
scalar UavWsnNetwork.sensors[65] dataGenerated 1
scalar UavWsnNetwork.sensors[385] dataGenerated 1
scalar UavWsnNetwork.sensors[372] dataGenerated 1
scalar UavWsnNetwork.sensors[122] dataGenerated 1
scalar UavWsnNetwork.sensors[75] dataGenerated 1
scalar UavWsnNetwork.sensors[79] dataGenerated 1
scalar UavWsnNetwork.sensors[228] dataGenerated 1
scalar UavWsnNetwork.sensors[376] dataGenerated 1
scalar UavWsnNetwork.sensors[146] dataGenerated 1
scalar UavWsnNetwork.sensors[310] dataGenerated 1
scalar UavWsnNetwork.sensors[129] dataGenerated 1
scalar UavWsnNetwork.sensors[144] dataGenerated 1
scalar UavWsnNetwork.sensors[353] dataGenerated 1
scalar UavWsnNetwork.sensors[137] dataGenerated 1
scalar UavWsnNetwork.sensors[399] dataGenerated 1
scalar UavWsnNetwork.sensors[220] dataGenerated 1
scalar UavWsnNetwork.sensors[86] dataGenerated 1
scalar UavWsnNetwork.sensors[170] dataGenerated 1
scalar UavWsnNetwork.sensors[270] dataGenerated 1
scalar UavWsnNetwork.sensors[234] dataGenerated 1
scalar UavWsnNetwork.sensors[221] dataGenerated 1
scalar UavWsnNetwork.sensors[308] dataGenerated 1
scalar UavWsnNetwork.sensors[158] dataGenerated 1
scalar UavWsnNetwork.sensors[101] dataGenerated 1
scalar UavWsnNetwork.sensors[295] dataGenerated 1
scalar UavWsnNetwork.sensors[291] dataGenerated 1
scalar UavWsnNetwork.sensors[231] dataGenerated 1
scalar UavWsnNetwork.sensors[25] dataGenerated 1
scalar UavWsnNetwork.sensors[9] dataGenerated 1
scalar UavWsnNetwork.sensors[4] dataGenerated 1
scalar UavWsnNetwork.sensors[214] dataGenerated 1
scalar UavWsnNetwork.sensors[97] dataGenerated 1
scalar UavWsnNetwork.sensors[186] dataGenerated 1
scalar UavWsnNetwork.sensors[325] dataGenerated 1
scalar UavWsnNetwork.sensors[358] dataGenerated 1
scalar UavWsnNetwork.sensors[261] dataGenerated 1
scalar UavWsnNetwork.sensors[28] dataGenerated 1
scalar UavWsnNetwork.sensors[12] dataGenerated 1
scalar UavWsnNetwork.sensors[388] dataGenerated 1
scalar UavWsnNetwork.sensors[159] dataGenerated 1
scalar UavWsnNetwork.sensors[111] dataGenerated 1
scalar UavWsnNetwork.sensors[312] dataGenerated 1
scalar UavWsnNetwork.sensors[100] dataGenerated 1
scalar UavWsnNetwork.sensors[216] dataGenerated 1
scalar UavWsnNetwork.sensors[383] dataGenerated 1
scalar UavWsnNetwork.sensors[276] dataGenerated 1
scalar UavWsnNetwork.sensors[132] dataGenerated 1
scalar UavWsnNetwork.sensors[176] dataGenerated 1
scalar UavWsnNetwork.sensors[284] dataGenerated 1
scalar UavWsnNetwork.sensors[346] dataGenerated 1
scalar UavWsnNetwork.sensors[342] dataGenerated 1
scalar UavWsnNetwork.sensors[107] dataGenerated 1
scalar UavWsnNetwork.sensors[142] dataGenerated 1
scalar UavWsnNetwork.sensors[219] dataGenerated 1
scalar UavWsnNetwork.sensors[243] dataGenerated 1
scalar UavWsnNetwork.sensors[223] dataGenerated 1
scalar UavWsnNetwork.sensors[263] dataGenerated 1
scalar UavWsnNetwork.sensors[189] dataGenerated 1
scalar UavWsnNetwork.sensors[315] dataGenerated 1
scalar UavWsnNetwork.sensors[162] dataGenerated 1
scalar UavWsnNetwork.sensors[120] dataGenerated 1
scalar UavWsnNetwork.sensors[8] dataGenerated 1
scalar UavWsnNetwork.sensors[387] dataGenerated 1
scalar UavWsnNetwork.sensors[173] dataGenerated 1
scalar UavWsnNetwork.sensors[13] dataGenerated 1
scalar UavWsnNetwork.sensors[149] dataGenerated 1
scalar UavWsnNetwork.sensors[316] dataGenerated 1
scalar UavWsnNetwork.sensors[304] dataGenerated 1
scalar UavWsnNetwork.sensors[237] dataGenerated 1
scalar UavWsnNetwork.sensors[208] dataGenerated 1
scalar UavWsnNetwork.sensors[110] dataGenerated 1
scalar UavWsnNetwork.sensors[326] dataGenerated 1
scalar UavWsnNetwork.sensors[76] dataGenerated 1
scalar UavWsnNetwork.sensors[209] dataGenerated 1
scalar UavWsnNetwork.sensors[59] dataGenerated 1
scalar UavWsnNetwork.sensors[196] dataGenerated 1
scalar UavWsnNetwork.sensors[85] dataGenerated 1
scalar UavWsnNetwork.sensors[68] dataGenerated 1
scalar UavWsnNetwork.sensors[6] dataGenerated 1
scalar UavWsnNetwork.sensors[46] dataGenerated 1
scalar UavWsnNetwork.sensors[82] dataGenerated 1
scalar UavWsnNetwork.sensors[206] dataGenerated 1
scalar UavWsnNetwork.sensors[91] dataGenerated 1
scalar UavWsnNetwork.sensors[185] dataGenerated 1
scalar UavWsnNetwork.sensors[384] dataGenerated 1
scalar UavWsnNetwork.sensors[380] dataGenerated 1
scalar UavWsnNetwork.sensors[281] dataGenerated 1
scalar UavWsnNetwork.sensors[293] dataGenerated 1
scalar UavWsnNetwork.sensors[259] dataGenerated 1
scalar UavWsnNetwork.sensors[350] dataGenerated 1
scalar UavWsnNetwork.sensors[218] dataGenerated 1
scalar UavWsnNetwork.sensors[359] dataGenerated 1
scalar UavWsnNetwork.sensors[194] dataGenerated 1
scalar UavWsnNetwork.sensors[264] dataGenerated 1
scalar UavWsnNetwork.sensors[178] dataGenerated 1
scalar UavWsnNetwork.sensors[314] dataGenerated 1
scalar UavWsnNetwork.sensors[52] dataGenerated 1
scalar UavWsnNetwork.sensors[340] dataGenerated 1
scalar UavWsnNetwork.sensors[363] dataGenerated 1
scalar UavWsnNetwork.sensors[2] dataGenerated 1
scalar UavWsnNetwork.sensors[171] dataGenerated 1
scalar UavWsnNetwork.sensors[334] dataGenerated 1
scalar UavWsnNetwork.sensors[248] dataGenerated 1
scalar UavWsnNetwork.sensors[24] dataGenerated 1
scalar UavWsnNetwork.sensors[57] dataGenerated 1
scalar UavWsnNetwork.sensors[96] dataGenerated 1
scalar UavWsnNetwork.sensors[244] dataGenerated 1
scalar UavWsnNetwork.sensors[166] dataGenerated 1
scalar UavWsnNetwork.sensors[117] dataGenerated 1
scalar UavWsnNetwork.sensors[23] dataGenerated 1
scalar UavWsnNetwork.sensors[260] dataGenerated 1
scalar UavWsnNetwork.sensors[141] dataGenerated 1
scalar UavWsnNetwork.sensors[31] dataGenerated 1
scalar UavWsnNetwork.sensors[64] dataGenerated 1
scalar UavWsnNetwork.sensors[347] dataGenerated 1
scalar UavWsnNetwork.sensors[395] dataGenerated 1
scalar UavWsnNetwork.sensors[306] dataGenerated 1
scalar UavWsnNetwork.sensors[287] dataGenerated 1
scalar UavWsnNetwork.sensors[307] dataGenerated 1
scalar UavWsnNetwork.sensors[252] dataGenerated 1
scalar UavWsnNetwork.sensors[204] dataGenerated 1
scalar UavWsnNetwork.sensors[21] dataGenerated 1
scalar UavWsnNetwork.sensors[130] dataGenerated 1
scalar UavWsnNetwork.sensors[249] dataGenerated 1
scalar UavWsnNetwork.sensors[356] dataGenerated 1
scalar UavWsnNetwork.sensors[41] dataGenerated 1
scalar UavWsnNetwork.sensors[143] dataGenerated 1
scalar UavWsnNetwork.sensors[391] dataGenerated 1
scalar UavWsnNetwork.sensors[349] dataGenerated 1
scalar UavWsnNetwork.sensors[49] dataGenerated 1
scalar UavWsnNetwork.sensors[183] dataGenerated 1
scalar UavWsnNetwork.sensors[210] dataGenerated 1
scalar UavWsnNetwork.sensors[339] dataGenerated 1
scalar UavWsnNetwork.sensors[172] dataGenerated 1
scalar UavWsnNetwork.sensors[135] dataGenerated 1
scalar UavWsnNetwork.sensors[124] dataGenerated 1
scalar UavWsnNetwork.sensors[301] dataGenerated 1
scalar UavWsnNetwork.sensors[150] dataGenerated 1
scalar UavWsnNetwork.sensors[58] dataGenerated 1
scalar UavWsnNetwork.sensors[98] dataGenerated 1
scalar UavWsnNetwork.sensors[63] dataGenerated 1
scalar UavWsnNetwork.sensors[272] dataGenerated 1
scalar UavWsnNetwork.sensors[77] dataGenerated 1
scalar UavWsnNetwork.sensors[374] dataGenerated 1
scalar UavWsnNetwork.sensors[37] dataGenerated 1
scalar UavWsnNetwork.sensors[355] dataGenerated 1
scalar UavWsnNetwork.sensors[205] dataGenerated 1
scalar UavWsnNetwork.sensors[18] dataGenerated 1
scalar UavWsnNetwork.sensors[200] dataGenerated 1
scalar UavWsnNetwork.sensors[327] dataGenerated 1
scalar UavWsnNetwork.sensors[32] dataGenerated 1
scalar UavWsnNetwork.sensors[22] dataGenerated 1
scalar UavWsnNetwork.sensors[203] dataGenerated 1
scalar UavWsnNetwork.sensors[256] dataGenerated 1
scalar UavWsnNetwork.sensors[40] dataGenerated 1
scalar UavWsnNetwork.sensors[156] dataGenerated 1
scalar UavWsnNetwork.sensors[201] dataGenerated 1
scalar UavWsnNetwork.sensors[7] dataGenerated 1
scalar UavWsnNetwork.sensors[51] dataGenerated 1
scalar UavWsnNetwork.sensors[164] dataGenerated 1
scalar UavWsnNetwork.sensors[286] dataGenerated 1
scalar UavWsnNetwork.sensors[337] dataGenerated 1
scalar UavWsnNetwork.sensors[271] dataGenerated 1
scalar UavWsnNetwork.sensors[290] dataGenerated 1
scalar UavWsnNetwork.sensors[313] dataGenerated 1
scalar UavWsnNetwork.sensors[365] dataGenerated 1
scalar UavWsnNetwork.sensors[125] dataGenerated 1
scalar UavWsnNetwork.sensors[47] dataGenerated 1
scalar UavWsnNetwork.sensors[39] dataGenerated 1
scalar UavWsnNetwork.sensors[246] dataGenerated 1
scalar UavWsnNetwork.sensors[242] dataGenerated 1
scalar UavWsnNetwork.sensors[292] dataGenerated 1
scalar UavWsnNetwork.sensors[389] dataGenerated 1
scalar UavWsnNetwork.sensors[197] dataGenerated 1
scalar UavWsnNetwork.sensors[20] dataGenerated 1
scalar UavWsnNetwork.sensors[332] dataGenerated 1
scalar UavWsnNetwork.sensors[14] dataGenerated 1
scalar UavWsnNetwork.sensors[0] dataGenerated 1
scalar UavWsnNetwork.sensors[352] dataGenerated 1
scalar UavWsnNetwork.sensors[274] dataGenerated 1
scalar UavWsnNetwork.sensors[54] dataGenerated 1
scalar UavWsnNetwork.sensors[236] dataGenerated 1
scalar UavWsnNetwork.sensors[165] dataGenerated 1
scalar UavWsnNetwork.sensors[283] dataGenerated 1
scalar UavWsnNetwork.sensors[123] dataGenerated 1
scalar UavWsnNetwork.sensors[139] dataGenerated 1
scalar UavWsnNetwork.sensors[69] dataGenerated 1
scalar UavWsnNetwork.sensors[215] dataGenerated 1
scalar UavWsnNetwork.sensors[44] dataGenerated 1
scalar UavWsnNetwork.sensors[115] dataGenerated 1
scalar UavWsnNetwork.sensors[35] dataGenerated 1
scalar UavWsnNetwork.sensors[253] dataGenerated 1
scalar UavWsnNetwork.sensors[254] dataGenerated 1
scalar UavWsnNetwork.sensors[235] dataGenerated 1
scalar UavWsnNetwork.sensors[67] dataGenerated 1
scalar UavWsnNetwork.sensors[177] dataGenerated 1
scalar UavWsnNetwork.sensors[168] dataGenerated 1
scalar UavWsnNetwork.sensors[328] dataGenerated 1
scalar UavWsnNetwork.sensors[174] dataGenerated 1
scalar UavWsnNetwork.sensors[226] dataGenerated 1
scalar UavWsnNetwork.sensors[266] dataGenerated 1
scalar UavWsnNetwork.sensors[10] dataGenerated 1
scalar UavWsnNetwork.sensors[17] dataGenerated 1
scalar UavWsnNetwork.sensors[89] dataGenerated 1
scalar UavWsnNetwork.sensors[280] dataGenerated 1
scalar UavWsnNetwork.sensors[29] dataGenerated 1
scalar UavWsnNetwork.sensors[351] dataGenerated 1
scalar UavWsnNetwork.sensors[50] dataGenerated 1
scalar UavWsnNetwork.sensors[90] dataGenerated 1
scalar UavWsnNetwork.sensors[74] dataGenerated 1
scalar UavWsnNetwork.sensors[188] dataGenerated 1
scalar UavWsnNetwork.sensors[265] dataGenerated 1
scalar UavWsnNetwork.sensors[247] dataGenerated 1
scalar UavWsnNetwork.sensors[62] dataGenerated 1
scalar UavWsnNetwork.sensors[379] dataGenerated 1
scalar UavWsnNetwork.sensors[103] dataGenerated 1
scalar UavWsnNetwork.sensors[336] dataGenerated 1
scalar UavWsnNetwork.sensors[348] dataGenerated 1
scalar UavWsnNetwork.sensors[343] dataGenerated 1
scalar UavWsnNetwork.sensors[397] dataGenerated 1
scalar UavWsnNetwork.sensors[53] dataGenerated 1
scalar UavWsnNetwork.sensors[160] dataGenerated 1
scalar UavWsnNetwork.sensors[322] dataGenerated 1
scalar UavWsnNetwork.sensors[153] dataGenerated 1
scalar UavWsnNetwork.sensors[157] dataGenerated 1
scalar UavWsnNetwork.sensors[61] dataGenerated 1
scalar UavWsnNetwork.sensors[109] dataGenerated 1
scalar UavWsnNetwork.sensors[128] dataGenerated 1
scalar UavWsnNetwork.sensors[84] dataGenerated 1
scalar UavWsnNetwork.sensors[225] dataGenerated 1
scalar UavWsnNetwork.sensors[95] dataGenerated 1
scalar UavWsnNetwork.sensors[81] dataGenerated 1
scalar UavWsnNetwork.sensors[80] dataGenerated 1
scalar UavWsnNetwork.sensors[60] dataGenerated 1
scalar UavWsnNetwork.sensors[45] dataGenerated 1
scalar UavWsnNetwork.sensors[241] dataGenerated 1
scalar UavWsnNetwork.sensors[360] dataGenerated 1
scalar UavWsnNetwork.sensors[251] dataGenerated 1
scalar UavWsnNetwork.sensors[87] dataGenerated 1
scalar UavWsnNetwork.sensors[250] dataGenerated 1
scalar UavWsnNetwork.sensors[224] dataGenerated 1
scalar UavWsnNetwork.sensors[370] dataGenerated 1
scalar UavWsnNetwork.sensors[311] dataGenerated 1
scalar UavWsnNetwork.sensors[15] dataGenerated 1
scalar UavWsnNetwork.sensors[296] dataGenerated 1
scalar UavWsnNetwork.sensors[378] dataGenerated 1
scalar UavWsnNetwork.sensors[329] dataGenerated 1
scalar UavWsnNetwork.sensors[257] dataGenerated 1
scalar UavWsnNetwork.sensors[199] dataGenerated 1
scalar UavWsnNetwork.sensors[71] dataGenerated 1
scalar UavWsnNetwork.sensors[233] dataGenerated 1
scalar UavWsnNetwork.sensors[269] dataGenerated 1
scalar UavWsnNetwork.sensors[118] dataGenerated 1
scalar UavWsnNetwork.sensors[229] dataGenerated 1
scalar UavWsnNetwork.sensors[161] dataGenerated 1
scalar UavWsnNetwork.sensors[217] dataGenerated 1
scalar UavWsnNetwork.sensors[324] dataGenerated 1
scalar UavWsnNetwork.sensors[361] dataGenerated 1
scalar UavWsnNetwork.sensors[335] dataGenerated 1
scalar UavWsnNetwork.sensors[93] dataGenerated 1
scalar UavWsnNetwork.sensors[302] dataGenerated 1
scalar UavWsnNetwork.sensors[318] dataGenerated 1
scalar UavWsnNetwork.sensors[105] dataGenerated 1
scalar UavWsnNetwork.sensors[377] dataGenerated 1
scalar UavWsnNetwork.sensors[131] dataGenerated 1
scalar UavWsnNetwork.sensors[26] dataGenerated 1
scalar UavWsnNetwork.sensors[227] dataGenerated 1
scalar UavWsnNetwork.sensors[333] dataGenerated 1
scalar UavWsnNetwork.sensors[163] dataGenerated 1
scalar UavWsnNetwork.sensors[190] dataGenerated 1
scalar UavWsnNetwork.sensors[275] dataGenerated 1
scalar UavWsnNetwork.sensors[138] dataGenerated 1
scalar UavWsnNetwork.sensors[255] dataGenerated 1
scalar UavWsnNetwork.sensors[268] dataGenerated 1
scalar UavWsnNetwork.sensors[30] dataGenerated 1
scalar UavWsnNetwork.sensors[27] dataGenerated 1
scalar UavWsnNetwork.sensors[323] dataGenerated 1
scalar UavWsnNetwork.sensors[34] dataGenerated 1
scalar UavWsnNetwork.sensors[66] dataGenerated 1
scalar UavWsnNetwork.sensors[147] dataGenerated 1
scalar UavWsnNetwork.sensors[36] dataGenerated 1
scalar UavWsnNetwork.sensors[56] dataGenerated 1
scalar UavWsnNetwork.radioMedium roundIndex 1
scalar UavWsnNetwork.radioMedium totalNetworkEnergy 196.40240425542
scalar UavWsnNetwork.radioMedium controlPacketCount 54340
scalar UavWsnNetwork.sensors[367] dataGenerated 1
scalar UavWsnNetwork.sensors[390] dataGenerated 1
scalar UavWsnNetwork.sensors[344] dataGenerated 1
scalar UavWsnNetwork.sensors[180] dataGenerated 1
scalar UavWsnNetwork.sensors[19] dataGenerated 1
scalar UavWsnNetwork.sensors[368] dataGenerated 1
scalar UavWsnNetwork.sensors[155] dataGenerated 1
scalar UavWsnNetwork.sensors[212] dataGenerated 1
scalar UavWsnNetwork.sensors[392] dataGenerated 1
scalar UavWsnNetwork.sensors[282] dataGenerated 1
scalar UavWsnNetwork.sensors[187] dataGenerated 1
scalar UavWsnNetwork.sensors[151] dataGenerated 1
scalar UavWsnNetwork.sensors[38] dataGenerated 1
scalar UavWsnNetwork.sensors[303] dataGenerated 1
scalar UavWsnNetwork.sensors[72] dataGenerated 1
scalar UavWsnNetwork.sensors[230] dataGenerated 1
scalar UavWsnNetwork.sensors[11] dataGenerated 1
scalar UavWsnNetwork.sensors[222] dataGenerated 1
scalar UavWsnNetwork.sensors[113] dataGenerated 1
scalar UavWsnNetwork.sensors[136] dataGenerated 1
scalar UavWsnNetwork.sensors[191] dataGenerated 1
scalar UavWsnNetwork.sensors[94] dataGenerated 1
scalar UavWsnNetwork.sensors[289] dataGenerated 1
scalar UavWsnNetwork.sensors[341] dataGenerated 1
scalar UavWsnNetwork.sensors[393] dataGenerated 1
scalar UavWsnNetwork.sensors[371] dataGenerated 1
scalar UavWsnNetwork.sensors[213] dataGenerated 1
scalar UavWsnNetwork.sensors[357] dataGenerated 1
scalar UavWsnNetwork.sensors[127] dataGenerated 1
scalar UavWsnNetwork.sensors[258] dataGenerated 1
scalar UavWsnNetwork.sensors[207] dataGenerated 1
scalar UavWsnNetwork.sensors[305] dataGenerated 1
scalar UavWsnNetwork.sensors[398] dataGenerated 1
scalar UavWsnNetwork.sensors[232] dataGenerated 1
scalar UavWsnNetwork.sensors[240] dataGenerated 1
scalar UavWsnNetwork.sensors[48] dataGenerated 1
scalar UavWsnNetwork.sensors[238] dataGenerated 1
scalar UavWsnNetwork.sensors[5] dataGenerated 1
scalar UavWsnNetwork.sensors[345] dataGenerated 1
scalar UavWsnNetwork.sensors[33] dataGenerated 1
scalar UavWsnNetwork.sensors[330] dataGenerated 1
scalar UavWsnNetwork.sensors[396] dataGenerated 1
scalar UavWsnNetwork.sensors[277] dataGenerated 1
scalar UavWsnNetwork.sensors[294] dataGenerated 1
scalar UavWsnNetwork.sensors[381] dataGenerated 1
scalar UavWsnNetwork.sensors[211] dataGenerated 1
scalar UavWsnNetwork.sensors[104] dataGenerated 1
scalar UavWsnNetwork.sensors[317] dataGenerated 1
scalar UavWsnNetwork.sensors[169] dataGenerated 1
scalar UavWsnNetwork.sensors[42] dataGenerated 1
scalar UavWsnNetwork.sensors[119] dataGenerated 1
scalar UavWsnNetwork.sensors[145] dataGenerated 1
scalar UavWsnNetwork.sensors[300] dataGenerated 1
scalar UavWsnNetwork.sensors[70] dataGenerated 1
scalar UavWsnNetwork.sensors[319] dataGenerated 1
scalar UavWsnNetwork.sensors[99] dataGenerated 1
scalar UavWsnNetwork.sensors[331] dataGenerated 1
scalar UavWsnNetwork.sensors[320] dataGenerated 1
scalar UavWsnNetwork.sensors[3] dataGenerated 1
scalar UavWsnNetwork.sensors[364] dataGenerated 1
scalar UavWsnNetwork.sensors[167] dataGenerated 1
scalar UavWsnNetwork.sensors[114] dataGenerated 1
scalar UavWsnNetwork.sensors[154] dataGenerated 1
scalar UavWsnNetwork.sensors[375] dataGenerated 1
scalar UavWsnNetwork.sensors[78] dataGenerated 1
scalar UavWsnNetwork.sensors[373] dataGenerated 1
scalar UavWsnNetwork.sensors[382] dataGenerated 1
scalar UavWsnNetwork.sensors[102] dataGenerated 1
scalar UavWsnNetwork.sensors[366] dataGenerated 1
scalar UavWsnNetwork.sensors[121] dataGenerated 1
scalar UavWsnNetwork.sensors[108] dataGenerated 1
scalar UavWsnNetwork.sensors[321] dataGenerated 1
scalar UavWsnNetwork.sensors[92] dataGenerated 1
scalar UavWsnNetwork.sensors[192] dataGenerated 1
scalar UavWsnNetwork.sensors[148] dataGenerated 1
scalar UavWsnNetwork.sensors[134] dataGenerated 1
scalar UavWsnNetwork.sensors[106] dataGenerated 1
scalar UavWsnNetwork.sensors[202] dataGenerated 1
scalar UavWsnNetwork.sensors[285] dataGenerated 1
scalar UavWsnNetwork.sensors[116] dataGenerated 1
scalar UavWsnNetwork.sensors[297] dataGenerated 1
scalar UavWsnNetwork.sensors[338] dataGenerated 1
scalar UavWsnNetwork.sensors[193] dataGenerated 1
scalar UavWsnNetwork.sensors[198] dataGenerated 1
scalar UavWsnNetwork.sensors[298] dataGenerated 1
scalar UavWsnNetwork.sensors[126] dataGenerated 1
scalar UavWsnNetwork.sensors[133] dataGenerated 1
scalar UavWsnNetwork.sensors[239] dataGenerated 1
scalar UavWsnNetwork.sensors[299] dataGenerated 1
scalar UavWsnNetwork.sensors[245] dataGenerated 1
scalar UavWsnNetwork.sensors[88] dataGenerated 1
scalar UavWsnNetwork.sensors[273] dataGenerated 1
scalar UavWsnNetwork.sensors[140] dataGenerated 1
scalar UavWsnNetwork.sensors[369] dataGenerated 1
scalar UavWsnNetwork.sensors[362] dataGenerated 1
scalar UavWsnNetwork.sensors[73] dataGenerated 1
scalar UavWsnNetwork.sensors[279] dataGenerated 1
scalar UavWsnNetwork.sensors[354] dataGenerated 1
scalar UavWsnNetwork.sensors[181] dataGenerated 1
scalar UavWsnNetwork.sensors[179] dataGenerated 1
scalar UavWsnNetwork.sensors[175] dataGenerated 1
scalar UavWsnNetwork.sensors[182] dataGenerated 1
scalar UavWsnNetwork.sensors[152] dataGenerated 1
scalar UavWsnNetwork.sensors[394] dataGenerated 1
scalar UavWsnNetwork.sensors[1] dataGenerated 1
scalar UavWsnNetwork.sensors[262] dataGenerated 1
scalar UavWsnNetwork.sensors[267] dataGenerated 1
scalar UavWsnNetwork.sensors[278] dataGenerated 1
scalar UavWsnNetwork.sensors[184] dataGenerated 1
scalar UavWsnNetwork.sensors[309] dataGenerated 1
scalar UavWsnNetwork.sensors[386] dataGenerated 1
scalar UavWsnNetwork.sensors[55] dataGenerated 1
scalar UavWsnNetwork.sensors[83] dataGenerated 1
scalar UavWsnNetwork.sensors[195] dataGenerated 1
scalar UavWsnNetwork.sensors[112] dataGenerated 1
scalar UavWsnNetwork.sensors[288] dataGenerated 1
scalar UavWsnNetwork.sensors[16] dataGenerated 1
scalar UavWsnNetwork.sensors[43] dataGenerated 1
scalar UavWsnNetwork.sensors[65] dataGenerated 1
scalar UavWsnNetwork.sensors[385] dataGenerated 1
scalar UavWsnNetwork.sensors[372] dataGenerated 1
scalar UavWsnNetwork.sensors[122] dataGenerated 1
scalar UavWsnNetwork.sensors[75] dataGenerated 1
scalar UavWsnNetwork.sensors[79] dataGenerated 1
scalar UavWsnNetwork.sensors[228] dataGenerated 1
scalar UavWsnNetwork.sensors[376] dataGenerated 1
scalar UavWsnNetwork.sensors[146] dataGenerated 1
scalar UavWsnNetwork.sensors[310] dataGenerated 1
scalar UavWsnNetwork.sensors[129] dataGenerated 1
scalar UavWsnNetwork.sensors[144] dataGenerated 1
scalar UavWsnNetwork.sensors[353] dataGenerated 1
scalar UavWsnNetwork.sensors[137] dataGenerated 1
scalar UavWsnNetwork.sensors[399] dataGenerated 1
scalar UavWsnNetwork.sensors[220] dataGenerated 1
scalar UavWsnNetwork.sensors[86] dataGenerated 1
scalar UavWsnNetwork.sensors[170] dataGenerated 1
scalar UavWsnNetwork.sensors[270] dataGenerated 1
scalar UavWsnNetwork.sensors[234] dataGenerated 1
scalar UavWsnNetwork.sensors[221] dataGenerated 1
scalar UavWsnNetwork.sensors[308] dataGenerated 1
scalar UavWsnNetwork.sensors[158] dataGenerated 1
scalar UavWsnNetwork.sensors[101] dataGenerated 1
scalar UavWsnNetwork.sensors[295] dataGenerated 1
scalar UavWsnNetwork.sensors[291] dataGenerated 1
scalar UavWsnNetwork.sensors[231] dataGenerated 1
scalar UavWsnNetwork.sensors[25] dataGenerated 1
scalar UavWsnNetwork.sensors[9] dataGenerated 1
scalar UavWsnNetwork.sensors[4] dataGenerated 1
scalar UavWsnNetwork.sensors[214] dataGenerated 1
scalar UavWsnNetwork.sensors[97] dataGenerated 1
scalar UavWsnNetwork.sensors[186] dataGenerated 1
scalar UavWsnNetwork.sensors[325] dataGenerated 1
scalar UavWsnNetwork.sensors[358] dataGenerated 1
scalar UavWsnNetwork.sensors[261] dataGenerated 1
scalar UavWsnNetwork.sensors[28] dataGenerated 1
scalar UavWsnNetwork.sensors[12] dataGenerated 1
scalar UavWsnNetwork.sensors[388] dataGenerated 1
scalar UavWsnNetwork.sensors[159] dataGenerated 1
scalar UavWsnNetwork.sensors[111] dataGenerated 1
scalar UavWsnNetwork.sensors[312] dataGenerated 1
scalar UavWsnNetwork.sensors[100] dataGenerated 1
scalar UavWsnNetwork.sensors[216] dataGenerated 1
scalar UavWsnNetwork.sensors[383] dataGenerated 1
scalar UavWsnNetwork.sensors[276] dataGenerated 1
scalar UavWsnNetwork.sensors[132] dataGenerated 1
scalar UavWsnNetwork.sensors[176] dataGenerated 1
scalar UavWsnNetwork.sensors[284] dataGenerated 1
scalar UavWsnNetwork.sensors[346] dataGenerated 1
scalar UavWsnNetwork.sensors[342] dataGenerated 1
scalar UavWsnNetwork.sensors[107] dataGenerated 1
scalar UavWsnNetwork.sensors[142] dataGenerated 1
scalar UavWsnNetwork.sensors[219] dataGenerated 1
scalar UavWsnNetwork.sensors[243] dataGenerated 1
scalar UavWsnNetwork.sensors[223] dataGenerated 1
scalar UavWsnNetwork.sensors[263] dataGenerated 1
scalar UavWsnNetwork.sensors[189] dataGenerated 1
scalar UavWsnNetwork.sensors[315] dataGenerated 1
scalar UavWsnNetwork.sensors[162] dataGenerated 1
scalar UavWsnNetwork.sensors[120] dataGenerated 1
scalar UavWsnNetwork.sensors[8] dataGenerated 1
scalar UavWsnNetwork.sensors[387] dataGenerated 1
scalar UavWsnNetwork.sensors[173] dataGenerated 1
scalar UavWsnNetwork.sensors[13] dataGenerated 1
scalar UavWsnNetwork.sensors[149] dataGenerated 1
scalar UavWsnNetwork.sensors[316] dataGenerated 1
scalar UavWsnNetwork.sensors[304] dataGenerated 1
scalar UavWsnNetwork.sensors[237] dataGenerated 1
scalar UavWsnNetwork.sensors[208] dataGenerated 1
scalar UavWsnNetwork.sensors[110] dataGenerated 1
scalar UavWsnNetwork.sensors[326] dataGenerated 1
scalar UavWsnNetwork.sensors[76] dataGenerated 1
scalar UavWsnNetwork.sensors[209] dataGenerated 1
scalar UavWsnNetwork.sensors[59] dataGenerated 1
scalar UavWsnNetwork.sensors[196] dataGenerated 1
scalar UavWsnNetwork.sensors[85] dataGenerated 1
scalar UavWsnNetwork.sensors[68] dataGenerated 1
scalar UavWsnNetwork.sensors[6] dataGenerated 1
scalar UavWsnNetwork.sensors[46] dataGenerated 1
scalar UavWsnNetwork.sensors[82] dataGenerated 1
scalar UavWsnNetwork.sensors[206] dataGenerated 1
scalar UavWsnNetwork.sensors[91] dataGenerated 1
scalar UavWsnNetwork.sensors[185] dataGenerated 1
scalar UavWsnNetwork.sensors[384] dataGenerated 1
scalar UavWsnNetwork.sensors[380] dataGenerated 1
scalar UavWsnNetwork.sensors[281] dataGenerated 1
scalar UavWsnNetwork.sensors[293] dataGenerated 1
scalar UavWsnNetwork.sensors[259] dataGenerated 1
scalar UavWsnNetwork.sensors[350] dataGenerated 1
scalar UavWsnNetwork.sensors[218] dataGenerated 1
scalar UavWsnNetwork.sensors[359] dataGenerated 1
scalar UavWsnNetwork.sensors[194] dataGenerated 1
scalar UavWsnNetwork.sensors[264] dataGenerated 1
scalar UavWsnNetwork.sensors[178] dataGenerated 1
scalar UavWsnNetwork.sensors[314] dataGenerated 1
scalar UavWsnNetwork.sensors[52] dataGenerated 1
scalar UavWsnNetwork.sensors[340] dataGenerated 1
scalar UavWsnNetwork.sensors[363] dataGenerated 1
scalar UavWsnNetwork.sensors[2] dataGenerated 1
scalar UavWsnNetwork.sensors[171] dataGenerated 1
scalar UavWsnNetwork.sensors[334] dataGenerated 1
scalar UavWsnNetwork.sensors[248] dataGenerated 1
scalar UavWsnNetwork.sensors[24] dataGenerated 1
scalar UavWsnNetwork.sensors[57] dataGenerated 1
scalar UavWsnNetwork.sensors[96] dataGenerated 1
scalar UavWsnNetwork.sensors[244] dataGenerated 1
scalar UavWsnNetwork.sensors[166] dataGenerated 1
scalar UavWsnNetwork.sensors[117] dataGenerated 1
scalar UavWsnNetwork.sensors[23] dataGenerated 1
scalar UavWsnNetwork.sensors[260] dataGenerated 1
scalar UavWsnNetwork.sensors[141] dataGenerated 1
scalar UavWsnNetwork.sensors[31] dataGenerated 1
scalar UavWsnNetwork.sensors[64] dataGenerated 1
scalar UavWsnNetwork.sensors[347] dataGenerated 1
scalar UavWsnNetwork.sensors[395] dataGenerated 1
scalar UavWsnNetwork.sensors[306] dataGenerated 1
scalar UavWsnNetwork.sensors[287] dataGenerated 1
scalar UavWsnNetwork.sensors[307] dataGenerated 1
scalar UavWsnNetwork.sensors[252] dataGenerated 1
scalar UavWsnNetwork.sensors[204] dataGenerated 1
scalar UavWsnNetwork.sensors[21] dataGenerated 1
scalar UavWsnNetwork.sensors[130] dataGenerated 1
scalar UavWsnNetwork.sensors[249] dataGenerated 1
scalar UavWsnNetwork.sensors[356] dataGenerated 1
scalar UavWsnNetwork.sensors[41] dataGenerated 1
scalar UavWsnNetwork.sensors[143] dataGenerated 1
scalar UavWsnNetwork.sensors[391] dataGenerated 1
scalar UavWsnNetwork.sensors[349] dataGenerated 1
scalar UavWsnNetwork.sensors[49] dataGenerated 1
scalar UavWsnNetwork.sensors[183] dataGenerated 1
scalar UavWsnNetwork.sensors[210] dataGenerated 1
scalar UavWsnNetwork.sensors[339] dataGenerated 1
scalar UavWsnNetwork.sensors[172] dataGenerated 1
scalar UavWsnNetwork.sensors[135] dataGenerated 1
scalar UavWsnNetwork.sensors[124] dataGenerated 1
scalar UavWsnNetwork.sensors[301] dataGenerated 1
scalar UavWsnNetwork.sensors[150] dataGenerated 1
scalar UavWsnNetwork.sensors[58] dataGenerated 1
scalar UavWsnNetwork.sensors[98] dataGenerated 1
scalar UavWsnNetwork.sensors[63] dataGenerated 1
scalar UavWsnNetwork.sensors[272] dataGenerated 1
scalar UavWsnNetwork.sensors[77] dataGenerated 1
scalar UavWsnNetwork.sensors[374] dataGenerated 1
scalar UavWsnNetwork.sensors[37] dataGenerated 1
scalar UavWsnNetwork.sensors[355] dataGenerated 1
scalar UavWsnNetwork.sensors[205] dataGenerated 1
scalar UavWsnNetwork.sensors[18] dataGenerated 1
scalar UavWsnNetwork.sensors[200] dataGenerated 1
scalar UavWsnNetwork.sensors[327] dataGenerated 1
scalar UavWsnNetwork.sensors[32] dataGenerated 1
scalar UavWsnNetwork.sensors[22] dataGenerated 1
scalar UavWsnNetwork.sensors[203] dataGenerated 1
scalar UavWsnNetwork.sensors[256] dataGenerated 1
scalar UavWsnNetwork.sensors[40] dataGenerated 1
scalar UavWsnNetwork.sensors[156] dataGenerated 1
scalar UavWsnNetwork.sensors[201] dataGenerated 1
scalar UavWsnNetwork.sensors[7] dataGenerated 1
scalar UavWsnNetwork.sensors[51] dataGenerated 1
scalar UavWsnNetwork.sensors[164] dataGenerated 1
scalar UavWsnNetwork.sensors[286] dataGenerated 1
scalar UavWsnNetwork.sensors[337] dataGenerated 1
scalar UavWsnNetwork.sensors[271] dataGenerated 1
scalar UavWsnNetwork.sensors[290] dataGenerated 1
scalar UavWsnNetwork.sensors[313] dataGenerated 1
scalar UavWsnNetwork.sensors[365] dataGenerated 1
scalar UavWsnNetwork.sensors[125] dataGenerated 1
scalar UavWsnNetwork.sensors[47] dataGenerated 1
scalar UavWsnNetwork.sensors[39] dataGenerated 1
scalar UavWsnNetwork.sensors[246] dataGenerated 1
scalar UavWsnNetwork.sensors[242] dataGenerated 1
scalar UavWsnNetwork.sensors[292] dataGenerated 1
scalar UavWsnNetwork.sensors[389] dataGenerated 1
scalar UavWsnNetwork.sensors[197] dataGenerated 1
scalar UavWsnNetwork.sensors[20] dataGenerated 1
scalar UavWsnNetwork.sensors[332] dataGenerated 1
scalar UavWsnNetwork.sensors[14] dataGenerated 1
scalar UavWsnNetwork.sensors[0] dataGenerated 1
scalar UavWsnNetwork.sensors[352] dataGenerated 1
scalar UavWsnNetwork.sensors[274] dataGenerated 1
scalar UavWsnNetwork.sensors[54] dataGenerated 1
scalar UavWsnNetwork.sensors[236] dataGenerated 1
scalar UavWsnNetwork.sensors[165] dataGenerated 1
scalar UavWsnNetwork.sensors[283] dataGenerated 1
scalar UavWsnNetwork.sensors[123] dataGenerated 1
scalar UavWsnNetwork.sensors[139] dataGenerated 1
scalar UavWsnNetwork.sensors[69] dataGenerated 1
scalar UavWsnNetwork.sensors[215] dataGenerated 1
scalar UavWsnNetwork.sensors[44] dataGenerated 1
scalar UavWsnNetwork.sensors[115] dataGenerated 1
scalar UavWsnNetwork.sensors[35] dataGenerated 1
scalar UavWsnNetwork.sensors[253] dataGenerated 1
scalar UavWsnNetwork.sensors[254] dataGenerated 1
scalar UavWsnNetwork.sensors[235] dataGenerated 1
scalar UavWsnNetwork.sensors[67] dataGenerated 1
scalar UavWsnNetwork.sensors[177] dataGenerated 1
scalar UavWsnNetwork.sensors[168] dataGenerated 1
scalar UavWsnNetwork.sensors[328] dataGenerated 1
scalar UavWsnNetwork.sensors[174] dataGenerated 1
scalar UavWsnNetwork.sensors[226] dataGenerated 1
scalar UavWsnNetwork.sensors[266] dataGenerated 1
scalar UavWsnNetwork.sensors[10] dataGenerated 1
scalar UavWsnNetwork.sensors[17] dataGenerated 1
scalar UavWsnNetwork.sensors[89] dataGenerated 1
scalar UavWsnNetwork.sensors[280] dataGenerated 1
scalar UavWsnNetwork.sensors[29] dataGenerated 1
scalar UavWsnNetwork.sensors[351] dataGenerated 1
scalar UavWsnNetwork.sensors[50] dataGenerated 1
scalar UavWsnNetwork.sensors[90] dataGenerated 1
scalar UavWsnNetwork.sensors[74] dataGenerated 1
scalar UavWsnNetwork.sensors[188] dataGenerated 1
[...]
par UavWsnNetwork.routing[390] typename "\"src.TrlarRouting\""
par UavWsnNetwork.routing[390] nodeId 390
par UavWsnNetwork.routing[390] modelFile "\"\""
par UavWsnNetwork.routing[390] transitionsFile "\"results/offline_dataset/behavior-stochastic/run-1/transitions.jsonl\""
par UavWsnNetwork.routing[390] bufferSize 32
par UavWsnNetwork.routing[390] maxCandidates 5
par UavWsnNetwork.routing[390] maxRetries 1
par UavWsnNetwork.routing[390] maxRouteAttempts 6
par UavWsnNetwork.routing[390] maxHops 30
par UavWsnNetwork.routing[390] minLinkQuality 0.25
par UavWsnNetwork.routing[390] minNeighborEnergyRatio 0.05
par UavWsnNetwork.routing[390] adaptationAlpha 0.2
par UavWsnNetwork.routing[390] queueHighWatermark 0.8
par UavWsnNetwork.routing[390] congestionPenalty 0.15
par UavWsnNetwork.routing[390] delayThreshold 0.25
par UavWsnNetwork.routing[390] rewardW1 1
par UavWsnNetwork.routing[390] rewardW2 1
par UavWsnNetwork.routing[390] rewardW3 0.2
par UavWsnNetwork.routing[390] rewardW4 1
par UavWsnNetwork.routing[390] ackTimeout 0.6
par UavWsnNetwork.routing[390] neighborTimeout 5
par UavWsnNetwork.routing[390] decisionInterval 0.02
par UavWsnNetwork.routing[390] policyPool "\"eps_0.10,eps_0.25,softmax_0.2,softmax_0.5,softmax_1.0\""
par UavWsnNetwork.routing[390] policyMixWeights "\"1.0,2.0,1.0,1.0,1.0\""
par UavWsnNetwork.routing[390] episodePolicyMode "\"random_stratified\""
par UavWsnNetwork.routing[390] episodeDuration 280
par UavWsnNetwork.routing[390] utilityCoeffLq 1.7
par UavWsnNetwork.routing[390] utilityCoeffNeighEnergy 0.9
par UavWsnNetwork.routing[390] utilityCoeffQueue 1.1
par UavWsnNetwork.routing[390] utilityCoeffFail 1
par UavWsnNetwork.routing[390] utilityCoeffUavDistance 0.35
par UavWsnNetwork.routing[390] mobilityTag "\"ggm-base\""
scalar UavWsnNetwork.routing[390] queueDrops 57
scalar UavWsnNetwork.routing[390] forwardedPackets 477
scalar UavWsnNetwork.routing[390] successfulForwards 462
scalar UavWsnNetwork.routing[390] failedForwards 35
par UavWsnNetwork.routing[391] typename "\"src.TrlarRouting\""
par UavWsnNetwork.routing[391] nodeId 391
par UavWsnNetwork.routing[391] modelFile "\"\""
par UavWsnNetwork.routing[391] transitionsFile "\"results/offline_dataset/behavior-stochastic/run-1/transitions.jsonl\""
par UavWsnNetwork.routing[391] bufferSize 32
par UavWsnNetwork.routing[391] maxCandidates 5
par UavWsnNetwork.routing[391] maxRetries 1
par UavWsnNetwork.routing[391] maxRouteAttempts 6
par UavWsnNetwork.routing[391] maxHops 30
par UavWsnNetwork.routing[391] minLinkQuality 0.25
par UavWsnNetwork.routing[391] minNeighborEnergyRatio 0.05
par UavWsnNetwork.routing[391] adaptationAlpha 0.2
par UavWsnNetwork.routing[391] queueHighWatermark 0.8
par UavWsnNetwork.routing[391] congestionPenalty 0.15
par UavWsnNetwork.routing[391] delayThreshold 0.25
par UavWsnNetwork.routing[391] rewardW1 1
par UavWsnNetwork.routing[391] rewardW2 1
par UavWsnNetwork.routing[391] rewardW3 0.2
par UavWsnNetwork.routing[391] rewardW4 1
par UavWsnNetwork.routing[391] ackTimeout 0.6
par UavWsnNetwork.routing[391] neighborTimeout 5
par UavWsnNetwork.routing[391] decisionInterval 0.02
par UavWsnNetwork.routing[391] policyPool "\"eps_0.10,eps_0.25,softmax_0.2,softmax_0.5,softmax_1.0\""
par UavWsnNetwork.routing[391] policyMixWeights "\"1.0,2.0,1.0,1.0,1.0\""
par UavWsnNetwork.routing[391] episodePolicyMode "\"random_stratified\""
par UavWsnNetwork.routing[391] episodeDuration 280
par UavWsnNetwork.routing[391] utilityCoeffLq 1.7
par UavWsnNetwork.routing[391] utilityCoeffNeighEnergy 0.9
par UavWsnNetwork.routing[391] utilityCoeffQueue 1.1
par UavWsnNetwork.routing[391] utilityCoeffFail 1
par UavWsnNetwork.routing[391] utilityCoeffUavDistance 0.35
par UavWsnNetwork.routing[391] mobilityTag "\"ggm-base\""
scalar UavWsnNetwork.routing[391] queueDrops 43
scalar UavWsnNetwork.routing[391] forwardedPackets 505
scalar UavWsnNetwork.routing[391] successfulForwards 488
scalar UavWsnNetwork.routing[391] failedForwards 33
par UavWsnNetwork.routing[392] typename "\"src.TrlarRouting\""
par UavWsnNetwork.routing[392] nodeId 392
par UavWsnNetwork.routing[392] modelFile "\"\""
par UavWsnNetwork.routing[392] transitionsFile "\"results/offline_dataset/behavior-stochastic/run-1/transitions.jsonl\""
par UavWsnNetwork.routing[392] bufferSize 32
par UavWsnNetwork.routing[392] maxCandidates 5
par UavWsnNetwork.routing[392] maxRetries 1
par UavWsnNetwork.routing[392] maxRouteAttempts 6
par UavWsnNetwork.routing[392] maxHops 30
par UavWsnNetwork.routing[392] minLinkQuality 0.25
par UavWsnNetwork.routing[392] minNeighborEnergyRatio 0.05
par UavWsnNetwork.routing[392] adaptationAlpha 0.2
par UavWsnNetwork.routing[392] queueHighWatermark 0.8
par UavWsnNetwork.routing[392] congestionPenalty 0.15
par UavWsnNetwork.routing[392] delayThreshold 0.25
par UavWsnNetwork.routing[392] rewardW1 1
par UavWsnNetwork.routing[392] rewardW2 1
par UavWsnNetwork.routing[392] rewardW3 0.2
par UavWsnNetwork.routing[392] rewardW4 1
par UavWsnNetwork.routing[392] ackTimeout 0.6
par UavWsnNetwork.routing[392] neighborTimeout 5
par UavWsnNetwork.routing[392] decisionInterval 0.02
par UavWsnNetwork.routing[392] policyPool "\"eps_0.10,eps_0.25,softmax_0.2,softmax_0.5,softmax_1.0\""
par UavWsnNetwork.routing[392] policyMixWeights "\"1.0,2.0,1.0,1.0,1.0\""
par UavWsnNetwork.routing[392] episodePolicyMode "\"random_stratified\""
par UavWsnNetwork.routing[392] episodeDuration 280
par UavWsnNetwork.routing[392] utilityCoeffLq 1.7
par UavWsnNetwork.routing[392] utilityCoeffNeighEnergy 0.9
par UavWsnNetwork.routing[392] utilityCoeffQueue 1.1
par UavWsnNetwork.routing[392] utilityCoeffFail 1
par UavWsnNetwork.routing[392] utilityCoeffUavDistance 0.35
par UavWsnNetwork.routing[392] mobilityTag "\"ggm-base\""
scalar UavWsnNetwork.routing[392] queueDrops 0
scalar UavWsnNetwork.routing[392] forwardedPackets 310
scalar UavWsnNetwork.routing[392] successfulForwards 304
scalar UavWsnNetwork.routing[392] failedForwards 15
par UavWsnNetwork.routing[393] typename "\"src.TrlarRouting\""
par UavWsnNetwork.routing[393] nodeId 393
par UavWsnNetwork.routing[393] modelFile "\"\""
par UavWsnNetwork.routing[393] transitionsFile "\"results/offline_dataset/behavior-stochastic/run-1/transitions.jsonl\""
par UavWsnNetwork.routing[393] bufferSize 32
par UavWsnNetwork.routing[393] maxCandidates 5
par UavWsnNetwork.routing[393] maxRetries 1
par UavWsnNetwork.routing[393] maxRouteAttempts 6
par UavWsnNetwork.routing[393] maxHops 30
par UavWsnNetwork.routing[393] minLinkQuality 0.25
par UavWsnNetwork.routing[393] minNeighborEnergyRatio 0.05
par UavWsnNetwork.routing[393] adaptationAlpha 0.2
par UavWsnNetwork.routing[393] queueHighWatermark 0.8
par UavWsnNetwork.routing[393] congestionPenalty 0.15
par UavWsnNetwork.routing[393] delayThreshold 0.25
par UavWsnNetwork.routing[393] rewardW1 1
par UavWsnNetwork.routing[393] rewardW2 1
par UavWsnNetwork.routing[393] rewardW3 0.2
par UavWsnNetwork.routing[393] rewardW4 1
par UavWsnNetwork.routing[393] ackTimeout 0.6
par UavWsnNetwork.routing[393] neighborTimeout 5
par UavWsnNetwork.routing[393] decisionInterval 0.02
par UavWsnNetwork.routing[393] policyPool "\"eps_0.10,eps_0.25,softmax_0.2,softmax_0.5,softmax_1.0\""
par UavWsnNetwork.routing[393] policyMixWeights "\"1.0,2.0,1.0,1.0,1.0\""
par UavWsnNetwork.routing[393] episodePolicyMode "\"random_stratified\""
par UavWsnNetwork.routing[393] episodeDuration 280
par UavWsnNetwork.routing[393] utilityCoeffLq 1.7
par UavWsnNetwork.routing[393] utilityCoeffNeighEnergy 0.9
par UavWsnNetwork.routing[393] utilityCoeffQueue 1.1
par UavWsnNetwork.routing[393] utilityCoeffFail 1
par UavWsnNetwork.routing[393] utilityCoeffUavDistance 0.35
par UavWsnNetwork.routing[393] mobilityTag "\"ggm-base\""
scalar UavWsnNetwork.routing[393] queueDrops 1
scalar UavWsnNetwork.routing[393] forwardedPackets 162
scalar UavWsnNetwork.routing[393] successfulForwards 158
scalar UavWsnNetwork.routing[393] failedForwards 14
par UavWsnNetwork.routing[394] typename "\"src.TrlarRouting\""
par UavWsnNetwork.routing[394] nodeId 394
par UavWsnNetwork.routing[394] modelFile "\"\""
par UavWsnNetwork.routing[394] transitionsFile "\"results/offline_dataset/behavior-stochastic/run-1/transitions.jsonl\""
par UavWsnNetwork.routing[394] bufferSize 32
par UavWsnNetwork.routing[394] maxCandidates 5
par UavWsnNetwork.routing[394] maxRetries 1
par UavWsnNetwork.routing[394] maxRouteAttempts 6
par UavWsnNetwork.routing[394] maxHops 30
par UavWsnNetwork.routing[394] minLinkQuality 0.25
par UavWsnNetwork.routing[394] minNeighborEnergyRatio 0.05
par UavWsnNetwork.routing[394] adaptationAlpha 0.2
par UavWsnNetwork.routing[394] queueHighWatermark 0.8
par UavWsnNetwork.routing[394] congestionPenalty 0.15
par UavWsnNetwork.routing[394] delayThreshold 0.25
par UavWsnNetwork.routing[394] rewardW1 1
par UavWsnNetwork.routing[394] rewardW2 1
par UavWsnNetwork.routing[394] rewardW3 0.2
par UavWsnNetwork.routing[394] rewardW4 1
par UavWsnNetwork.routing[394] ackTimeout 0.6
par UavWsnNetwork.routing[394] neighborTimeout 5
par UavWsnNetwork.routing[394] decisionInterval 0.02
par UavWsnNetwork.routing[394] policyPool "\"eps_0.10,eps_0.25,softmax_0.2,softmax_0.5,softmax_1.0\""
par UavWsnNetwork.routing[394] policyMixWeights "\"1.0,2.0,1.0,1.0,1.0\""
par UavWsnNetwork.routing[394] episodePolicyMode "\"random_stratified\""
par UavWsnNetwork.routing[394] episodeDuration 280
par UavWsnNetwork.routing[394] utilityCoeffLq 1.7
par UavWsnNetwork.routing[394] utilityCoeffNeighEnergy 0.9
par UavWsnNetwork.routing[394] utilityCoeffQueue 1.1
par UavWsnNetwork.routing[394] utilityCoeffFail 1
par UavWsnNetwork.routing[394] utilityCoeffUavDistance 0.35
par UavWsnNetwork.routing[394] mobilityTag "\"ggm-base\""
scalar UavWsnNetwork.routing[394] queueDrops 0
scalar UavWsnNetwork.routing[394] forwardedPackets 398
scalar UavWsnNetwork.routing[394] successfulForwards 394
scalar UavWsnNetwork.routing[394] failedForwards 20
par UavWsnNetwork.routing[395] typename "\"src.TrlarRouting\""
par UavWsnNetwork.routing[395] nodeId 395
par UavWsnNetwork.routing[395] modelFile "\"\""
par UavWsnNetwork.routing[395] transitionsFile "\"results/offline_dataset/behavior-stochastic/run-1/transitions.jsonl\""
par UavWsnNetwork.routing[395] bufferSize 32
par UavWsnNetwork.routing[395] maxCandidates 5
par UavWsnNetwork.routing[395] maxRetries 1
par UavWsnNetwork.routing[395] maxRouteAttempts 6
par UavWsnNetwork.routing[395] maxHops 30
par UavWsnNetwork.routing[395] minLinkQuality 0.25
par UavWsnNetwork.routing[395] minNeighborEnergyRatio 0.05
par UavWsnNetwork.routing[395] adaptationAlpha 0.2
par UavWsnNetwork.routing[395] queueHighWatermark 0.8
par UavWsnNetwork.routing[395] congestionPenalty 0.15
par UavWsnNetwork.routing[395] delayThreshold 0.25
par UavWsnNetwork.routing[395] rewardW1 1
par UavWsnNetwork.routing[395] rewardW2 1
par UavWsnNetwork.routing[395] rewardW3 0.2
par UavWsnNetwork.routing[395] rewardW4 1
par UavWsnNetwork.routing[395] ackTimeout 0.6
par UavWsnNetwork.routing[395] neighborTimeout 5
par UavWsnNetwork.routing[395] decisionInterval 0.02
par UavWsnNetwork.routing[395] policyPool "\"eps_0.10,eps_0.25,softmax_0.2,softmax_0.5,softmax_1.0\""
par UavWsnNetwork.routing[395] policyMixWeights "\"1.0,2.0,1.0,1.0,1.0\""
par UavWsnNetwork.routing[395] episodePolicyMode "\"random_stratified\""
par UavWsnNetwork.routing[395] episodeDuration 280
par UavWsnNetwork.routing[395] utilityCoeffLq 1.7
par UavWsnNetwork.routing[395] utilityCoeffNeighEnergy 0.9
par UavWsnNetwork.routing[395] utilityCoeffQueue 1.1
par UavWsnNetwork.routing[395] utilityCoeffFail 1
par UavWsnNetwork.routing[395] utilityCoeffUavDistance 0.35
par UavWsnNetwork.routing[395] mobilityTag "\"ggm-base\""
scalar UavWsnNetwork.routing[395] queueDrops 0
scalar UavWsnNetwork.routing[395] forwardedPackets 241
scalar UavWsnNetwork.routing[395] successfulForwards 237
scalar UavWsnNetwork.routing[395] failedForwards 10
par UavWsnNetwork.routing[396] typename "\"src.TrlarRouting\""
par UavWsnNetwork.routing[396] nodeId 396
par UavWsnNetwork.routing[396] modelFile "\"\""
par UavWsnNetwork.routing[396] transitionsFile "\"results/offline_dataset/behavior-stochastic/run-1/transitions.jsonl\""
par UavWsnNetwork.routing[396] bufferSize 32
par UavWsnNetwork.routing[396] maxCandidates 5
par UavWsnNetwork.routing[396] maxRetries 1
par UavWsnNetwork.routing[396] maxRouteAttempts 6
par UavWsnNetwork.routing[396] maxHops 30
par UavWsnNetwork.routing[396] minLinkQuality 0.25
par UavWsnNetwork.routing[396] minNeighborEnergyRatio 0.05
par UavWsnNetwork.routing[396] adaptationAlpha 0.2
par UavWsnNetwork.routing[396] queueHighWatermark 0.8
par UavWsnNetwork.routing[396] congestionPenalty 0.15
par UavWsnNetwork.routing[396] delayThreshold 0.25
par UavWsnNetwork.routing[396] rewardW1 1
par UavWsnNetwork.routing[396] rewardW2 1
par UavWsnNetwork.routing[396] rewardW3 0.2
par UavWsnNetwork.routing[396] rewardW4 1
par UavWsnNetwork.routing[396] ackTimeout 0.6
par UavWsnNetwork.routing[396] neighborTimeout 5
par UavWsnNetwork.routing[396] decisionInterval 0.02
par UavWsnNetwork.routing[396] policyPool "\"eps_0.10,eps_0.25,softmax_0.2,softmax_0.5,softmax_1.0\""
par UavWsnNetwork.routing[396] policyMixWeights "\"1.0,2.0,1.0,1.0,1.0\""
par UavWsnNetwork.routing[396] episodePolicyMode "\"random_stratified\""
par UavWsnNetwork.routing[396] episodeDuration 280
par UavWsnNetwork.routing[396] utilityCoeffLq 1.7
par UavWsnNetwork.routing[396] utilityCoeffNeighEnergy 0.9
par UavWsnNetwork.routing[396] utilityCoeffQueue 1.1
par UavWsnNetwork.routing[396] utilityCoeffFail 1
par UavWsnNetwork.routing[396] utilityCoeffUavDistance 0.35
par UavWsnNetwork.routing[396] mobilityTag "\"ggm-base\""
scalar UavWsnNetwork.routing[396] queueDrops 53
scalar UavWsnNetwork.routing[396] forwardedPackets 506
scalar UavWsnNetwork.routing[396] successfulForwards 491
scalar UavWsnNetwork.routing[396] failedForwards 36
par UavWsnNetwork.routing[397] typename "\"src.TrlarRouting\""
par UavWsnNetwork.routing[397] nodeId 397
par UavWsnNetwork.routing[397] modelFile "\"\""
par UavWsnNetwork.routing[397] transitionsFile "\"results/offline_dataset/behavior-stochastic/run-1/transitions.jsonl\""
par UavWsnNetwork.routing[397] bufferSize 32
par UavWsnNetwork.routing[397] maxCandidates 5
par UavWsnNetwork.routing[397] maxRetries 1
par UavWsnNetwork.routing[397] maxRouteAttempts 6
par UavWsnNetwork.routing[397] maxHops 30
par UavWsnNetwork.routing[397] minLinkQuality 0.25
par UavWsnNetwork.routing[397] minNeighborEnergyRatio 0.05
par UavWsnNetwork.routing[397] adaptationAlpha 0.2
par UavWsnNetwork.routing[397] queueHighWatermark 0.8
par UavWsnNetwork.routing[397] congestionPenalty 0.15
par UavWsnNetwork.routing[397] delayThreshold 0.25
par UavWsnNetwork.routing[397] rewardW1 1
par UavWsnNetwork.routing[397] rewardW2 1
par UavWsnNetwork.routing[397] rewardW3 0.2
par UavWsnNetwork.routing[397] rewardW4 1
par UavWsnNetwork.routing[397] ackTimeout 0.6
par UavWsnNetwork.routing[397] neighborTimeout 5
par UavWsnNetwork.routing[397] decisionInterval 0.02
par UavWsnNetwork.routing[397] policyPool "\"eps_0.10,eps_0.25,softmax_0.2,softmax_0.5,softmax_1.0\""
par UavWsnNetwork.routing[397] policyMixWeights "\"1.0,2.0,1.0,1.0,1.0\""
par UavWsnNetwork.routing[397] episodePolicyMode "\"random_stratified\""
par UavWsnNetwork.routing[397] episodeDuration 280
par UavWsnNetwork.routing[397] utilityCoeffLq 1.7
par UavWsnNetwork.routing[397] utilityCoeffNeighEnergy 0.9
par UavWsnNetwork.routing[397] utilityCoeffQueue 1.1
par UavWsnNetwork.routing[397] utilityCoeffFail 1
par UavWsnNetwork.routing[397] utilityCoeffUavDistance 0.35
par UavWsnNetwork.routing[397] mobilityTag "\"ggm-base\""
scalar UavWsnNetwork.routing[397] queueDrops 0
scalar UavWsnNetwork.routing[397] forwardedPackets 331
scalar UavWsnNetwork.routing[397] successfulForwards 323
scalar UavWsnNetwork.routing[397] failedForwards 14
par UavWsnNetwork.routing[398] typename "\"src.TrlarRouting\""
par UavWsnNetwork.routing[398] nodeId 398
par UavWsnNetwork.routing[398] modelFile "\"\""
par UavWsnNetwork.routing[398] transitionsFile "\"results/offline_dataset/behavior-stochastic/run-1/transitions.jsonl\""
par UavWsnNetwork.routing[398] bufferSize 32
par UavWsnNetwork.routing[398] maxCandidates 5
par UavWsnNetwork.routing[398] maxRetries 1
par UavWsnNetwork.routing[398] maxRouteAttempts 6
par UavWsnNetwork.routing[398] maxHops 30
par UavWsnNetwork.routing[398] minLinkQuality 0.25
par UavWsnNetwork.routing[398] minNeighborEnergyRatio 0.05
par UavWsnNetwork.routing[398] adaptationAlpha 0.2
par UavWsnNetwork.routing[398] queueHighWatermark 0.8
par UavWsnNetwork.routing[398] congestionPenalty 0.15
par UavWsnNetwork.routing[398] delayThreshold 0.25
par UavWsnNetwork.routing[398] rewardW1 1
par UavWsnNetwork.routing[398] rewardW2 1
par UavWsnNetwork.routing[398] rewardW3 0.2
par UavWsnNetwork.routing[398] rewardW4 1
par UavWsnNetwork.routing[398] ackTimeout 0.6
par UavWsnNetwork.routing[398] neighborTimeout 5
par UavWsnNetwork.routing[398] decisionInterval 0.02
par UavWsnNetwork.routing[398] policyPool "\"eps_0.10,eps_0.25,softmax_0.2,softmax_0.5,softmax_1.0\""
par UavWsnNetwork.routing[398] policyMixWeights "\"1.0,2.0,1.0,1.0,1.0\""
par UavWsnNetwork.routing[398] episodePolicyMode "\"random_stratified\""
par UavWsnNetwork.routing[398] episodeDuration 280
par UavWsnNetwork.routing[398] utilityCoeffLq 1.7
par UavWsnNetwork.routing[398] utilityCoeffNeighEnergy 0.9
par UavWsnNetwork.routing[398] utilityCoeffQueue 1.1
par UavWsnNetwork.routing[398] utilityCoeffFail 1
par UavWsnNetwork.routing[398] utilityCoeffUavDistance 0.35
par UavWsnNetwork.routing[398] mobilityTag "\"ggm-base\""
scalar UavWsnNetwork.routing[398] queueDrops 42
scalar UavWsnNetwork.routing[398] forwardedPackets 435
scalar UavWsnNetwork.routing[398] successfulForwards 418
scalar UavWsnNetwork.routing[398] failedForwards 34
par UavWsnNetwork.routing[399] typename "\"src.TrlarRouting\""
par UavWsnNetwork.routing[399] nodeId 399
par UavWsnNetwork.routing[399] modelFile "\"\""
par UavWsnNetwork.routing[399] transitionsFile "\"results/offline_dataset/behavior-stochastic/run-1/transitions.jsonl\""
par UavWsnNetwork.routing[399] bufferSize 32
par UavWsnNetwork.routing[399] maxCandidates 5
par UavWsnNetwork.routing[399] maxRetries 1
par UavWsnNetwork.routing[399] maxRouteAttempts 6
par UavWsnNetwork.routing[399] maxHops 30
par UavWsnNetwork.routing[399] minLinkQuality 0.25
par UavWsnNetwork.routing[399] minNeighborEnergyRatio 0.05
par UavWsnNetwork.routing[399] adaptationAlpha 0.2
par UavWsnNetwork.routing[399] queueHighWatermark 0.8
par UavWsnNetwork.routing[399] congestionPenalty 0.15
par UavWsnNetwork.routing[399] delayThreshold 0.25
par UavWsnNetwork.routing[399] rewardW1 1
par UavWsnNetwork.routing[399] rewardW2 1
par UavWsnNetwork.routing[399] rewardW3 0.2
par UavWsnNetwork.routing[399] rewardW4 1
par UavWsnNetwork.routing[399] ackTimeout 0.6
par UavWsnNetwork.routing[399] neighborTimeout 5
par UavWsnNetwork.routing[399] decisionInterval 0.02
par UavWsnNetwork.routing[399] policyPool "\"eps_0.10,eps_0.25,softmax_0.2,softmax_0.5,softmax_1.0\""
par UavWsnNetwork.routing[399] policyMixWeights "\"1.0,2.0,1.0,1.0,1.0\""
par UavWsnNetwork.routing[399] episodePolicyMode "\"random_stratified\""
par UavWsnNetwork.routing[399] episodeDuration 280
par UavWsnNetwork.routing[399] utilityCoeffLq 1.7
par UavWsnNetwork.routing[399] utilityCoeffNeighEnergy 0.9
par UavWsnNetwork.routing[399] utilityCoeffQueue 1.1
par UavWsnNetwork.routing[399] utilityCoeffFail 1
par UavWsnNetwork.routing[399] utilityCoeffUavDistance 0.35
par UavWsnNetwork.routing[399] mobilityTag "\"ggm-base\""
scalar UavWsnNetwork.routing[399] queueDrops 69
scalar UavWsnNetwork.routing[399] forwardedPackets 459
scalar UavWsnNetwork.routing[399] successfulForwards 449
scalar UavWsnNetwork.routing[399] failedForwards 28
par UavWsnNetwork typename "\"src.UavWsnNetwork\""
par UavWsnNetwork numNodes 400
par UavWsnNetwork areaX 1000
par UavWsnNetwork areaY 1000

